[  0%] Building Fortran object src/HEMCO/src/Shared/Headers/CMakeFiles/HeadersHco.dir/hco_charpak_mod.F90.o
[  0%] Building Fortran object src/HEMCO/src/Shared/Headers/CMakeFiles/HeadersHco.dir/hco_inquireMod.F90.o
[  0%] Building Fortran object src/HEMCO/src/Shared/Headers/CMakeFiles/HeadersHco.dir/hco_precision_mod.F90.o
[  0%] Building Fortran object src/Cloud-J/src/Core/CMakeFiles/CloudJ_Core.dir/cldj_cmn_mod.f90.o
[  0%] Building Fortran object src/GEOS-Chem/KPP/fullchem/CMakeFiles/KPP_FirstPass.dir/gckpp_Monitor.F90.o
[  0%] Building Fortran object src/GEOS-Chem/ISORROPIA/CMakeFiles/Isorropia.dir/isorropiaII_main_mod.F.o
[  0%] Building Fortran object src/Cloud-J/src/Core/CMakeFiles/CloudJ_Core.dir/cldj_error_mod.f90.o
[  0%] Building Fortran object src/Cloud-J/src/Core/CMakeFiles/CloudJ_Core.dir/osa_sub_mod.f90.o
[  0%] Building Fortran object src/GEOS-Chem/KPP/fullchem/CMakeFiles/KPP_FirstPass.dir/gckpp_Precision.F90.o
[  0%] Building Fortran object src/Cloud-J/src/Core/CMakeFiles/CloudJ_Core.dir/fjx_sub_mod.f90.o
[  1%] Building Fortran object src/GEOS-Chem/KPP/fullchem/CMakeFiles/KPP_FirstPass.dir/gckpp_Parameters.F90.o
[  1%] Linking Fortran static library libKPP_FirstPass.a
[  1%] Built target KPP_FirstPass
[  3%] Linking Fortran static library libHeadersHco.a
[  3%] Built target HeadersHco
[  3%] Building Fortran object src/HEMCO/src/Shared/GeosUtil/CMakeFiles/JulDayHco.dir/hco_julday_mod.F90.o
[  4%] Linking Fortran static library libJulDayHco.a
[  4%] Built target JulDayHco
[  4%] Building Fortran object src/HEMCO/src/Shared/NcdfUtil/CMakeFiles/NcdfUtilHco.dir/hco_m_netcdf_io_checks.F90.o
[  4%] Building Fortran object src/HEMCO/src/Shared/NcdfUtil/CMakeFiles/NcdfUtilHco.dir/m_do_err_out.F90.o
[  4%] Building Fortran object src/HEMCO/src/Shared/NcdfUtil/CMakeFiles/NcdfUtilHco.dir/hco_m_netcdf_io_close.F90.o
[  4%] Building Fortran object src/HEMCO/src/Shared/NcdfUtil/CMakeFiles/NcdfUtilHco.dir/hco_m_netcdf_io_define.F90.o
[  6%] Building Fortran object src/HEMCO/src/Shared/NcdfUtil/CMakeFiles/NcdfUtilHco.dir/hco_m_netcdf_io_create.F90.o
[  6%] Building Fortran object src/HEMCO/src/Shared/NcdfUtil/CMakeFiles/NcdfUtilHco.dir/hco_m_netcdf_io_get_dimlen.F90.o
[  6%] Building Fortran object src/HEMCO/src/Shared/NcdfUtil/CMakeFiles/NcdfUtilHco.dir/hco_m_netcdf_io_handle_err.F90.o
[  7%] Building Fortran object src/HEMCO/src/Shared/NcdfUtil/CMakeFiles/NcdfUtilHco.dir/hco_m_netcdf_io_open.F90.o
[  7%] Building Fortran object src/HEMCO/src/Shared/NcdfUtil/CMakeFiles/NcdfUtilHco.dir/hco_m_netcdf_io_read.F90.o
[  7%] Building Fortran object src/HEMCO/src/Shared/NcdfUtil/CMakeFiles/NcdfUtilHco.dir/hco_m_netcdf_io_readattr.F90.o
[  7%] Building Fortran object src/HEMCO/src/Shared/NcdfUtil/CMakeFiles/NcdfUtilHco.dir/hco_m_netcdf_io_write.F90.o
[  9%] Building Fortran object src/HEMCO/src/Shared/NcdfUtil/CMakeFiles/NcdfUtilHco.dir/hco_ncdf_mod.F90.o
[  9%] Linking Fortran static library libNcdfUtilHco.a
[  9%] Built target NcdfUtilHco
[  9%] Building Fortran object src/HEMCO/src/Shared/GeosUtil/CMakeFiles/GeosUtilHco.dir/hco_regrid_a2a_mod.F90.o
[  9%] Building Fortran object src/HEMCO/src/Shared/GeosUtil/CMakeFiles/GeosUtilHco.dir/hco_henry_mod.F90.o
[  9%] Building Fortran object src/Cloud-J/src/Core/CMakeFiles/CloudJ_Core.dir/cldj_init_mod.f90.o
[ 10%] Building Fortran object src/Cloud-J/src/Core/CMakeFiles/CloudJ_Core.dir/cld_sub_mod.f90.o
[ 10%] Linking Fortran static library libGeosUtilHco.a
[ 10%] Built target GeosUtilHco
[ 10%] Building Fortran object src/HEMCO/src/Core/CMakeFiles/HCO.dir/hco_error_mod.F90.o
[ 12%] Building Fortran object src/HEMCO/src/Core/CMakeFiles/HCO.dir/messy_ncregrid_mpi.F90.o
[ 13%] Building Fortran object src/HEMCO/src/Core/CMakeFiles/HCO.dir/interpreter.F90.o
[ 13%] Building Fortran object src/HEMCO/src/Core/CMakeFiles/HCO.dir/messy_ncregrid_base.F90.o
[ 13%] Building Fortran object src/HEMCO/src/Core/CMakeFiles/HCO.dir/hco_arr_mod.F90.o
[ 13%] Building Fortran object src/HEMCO/src/Core/CMakeFiles/HCO.dir/hco_types_mod.F90.o
[ 15%] Building Fortran object src/HEMCO/src/Core/CMakeFiles/HCO.dir/hco_extlist_mod.F90.o
[ 15%] Building Fortran object src/HEMCO/src/Core/CMakeFiles/HCO.dir/hco_filedata_mod.F90.o
[ 15%] Linking Fortran static library libCloudJ_Core.a
[ 15%] Building Fortran object src/HEMCO/src/Core/CMakeFiles/HCO.dir/hco_vertgrid_mod.F90.o
[ 15%] Built target CloudJ_Core
[ 15%] Building Fortran object src/GEOS-Chem/Headers/CMakeFiles/Headers.dir/charpak_mod.F90.o
[ 15%] Building Fortran object src/GEOS-Chem/Headers/CMakeFiles/Headers.dir/precision_mod.F90.o
[ 15%] Building Fortran object src/GEOS-Chem/Headers/CMakeFiles/Headers.dir/CMN_SIZE_mod.F90.o
[ 15%] Building Fortran object src/GEOS-Chem/Headers/CMakeFiles/Headers.dir/inquireMod.F90.o
[ 15%] Building Fortran object src/GEOS-Chem/Headers/CMakeFiles/Headers.dir/qfyaml_mod.F90.o
[ 15%] Building Fortran object src/GEOS-Chem/Headers/CMakeFiles/Headers.dir/dictionary_m.F90.o
[ 15%] Building Fortran object src/GEOS-Chem/Headers/CMakeFiles/Headers.dir/CMN_O3_mod.F90.o
[ 16%] Building Fortran object src/GEOS-Chem/Headers/CMakeFiles/Headers.dir/physconstants.F90.o
[ 16%] Building Fortran object src/HEMCO/src/Core/CMakeFiles/HCO.dir/hco_chartools_mod.F90.o
[ 18%] Building Fortran object src/GEOS-Chem/Headers/CMakeFiles/Headers.dir/registry_params_mod.F90.o
[ 18%] Building Fortran object src/GEOS-Chem/Headers/CMakeFiles/Headers.dir/roundoff_mod.F90.o
[ 19%] Linking Fortran static library libIsorropia.a
[ 21%] Building Fortran object src/GEOS-Chem/Headers/CMakeFiles/Headers.dir/errcode_mod.F90.o
[ 21%] Built target Isorropia
[ 21%] Building Fortran object src/GEOS-Chem/Headers/CMakeFiles/Headers.dir/input_opt_mod.F90.o
[ 22%] Building Fortran object src/HEMCO/src/Core/CMakeFiles/HCO.dir/hco_unit_mod.F90.o
[ 24%] Building Fortran object src/HEMCO/src/Core/CMakeFiles/HCO.dir/hco_state_mod.F90.o
[ 24%] Building Fortran object src/GEOS-Chem/Headers/CMakeFiles/Headers.dir/state_grid_mod.F90.o
[ 24%] Building Fortran object src/GEOS-Chem/Headers/CMakeFiles/Headers.dir/registry_mod.F90.o
[ 24%] Building Fortran object src/GEOS-Chem/Headers/CMakeFiles/Headers.dir/species_mod.F90.o
[ 24%] Building Fortran object src/GEOS-Chem/Headers/CMakeFiles/Headers.dir/CMN_FJX_MOD.F90.o
[ 24%] Building Fortran object src/GEOS-Chem/Headers/CMakeFiles/Headers.dir/aermass_container_mod.F90.o
[ 24%] Building Fortran object src/GEOS-Chem/Headers/CMakeFiles/Headers.dir/phot_container_mod.F90.o
[ 24%] Building Fortran object src/HEMCO/src/Core/CMakeFiles/HCO.dir/hco_datacont_mod.F90.o
[ 25%] Building Fortran object src/HEMCO/src/Core/CMakeFiles/HCO.dir/hco_logfile_mod.F90.o
[ 27%] Building Fortran object src/GEOS-Chem/Headers/CMakeFiles/Headers.dir/CMN_DIAG_mod.F90.o
[ 27%] Building Fortran object src/HEMCO/src/Core/CMakeFiles/HCO.dir/hco_scale_mod.F90.o
[ 27%] Building Fortran object src/HEMCO/src/Core/CMakeFiles/HCO.dir/hco_timeshift_mod.F90.o
[ 27%] Building Fortran object src/HEMCO/src/Core/CMakeFiles/HCO.dir/hco_interp_mod.F90.o
[ 28%] Building Fortran object src/GEOS-Chem/Headers/CMakeFiles/Headers.dir/diaglist_mod.F90.o
[ 28%] Building Fortran object src/GEOS-Chem/Headers/CMakeFiles/Headers.dir/species_database_mod.F90.o
[ 28%] Building Fortran object src/GEOS-Chem/Headers/CMakeFiles/Headers.dir/state_met_mod.F90.o
[ 28%] Building Fortran object src/HEMCO/src/Core/CMakeFiles/HCO.dir/hco_emislist_mod.F90.o
[ 30%] Building Fortran object src/HEMCO/src/Core/CMakeFiles/HCO.dir/hco_clock_mod.F90.o
[ 30%] Building Fortran object src/GEOS-Chem/Headers/CMakeFiles/Headers.dir/taggeddiaglist_mod.F90.o
[ 31%] Building Fortran object src/GEOS-Chem/Headers/CMakeFiles/Headers.dir/state_chm_mod.F90.o
[ 31%] Building Fortran object src/HEMCO/src/Core/CMakeFiles/HCO.dir/hco_tidx_mod.F90.o
[ 31%] Building Fortran object src/HEMCO/src/Core/CMakeFiles/HCO.dir/hco_diagn_mod.F90.o
[ 31%] Building Fortran object src/HEMCO/src/Core/CMakeFiles/HCO.dir/hcoio_util_mod.F90.o
[ 33%] Building Fortran object src/HEMCO/src/Core/CMakeFiles/HCO.dir/hcoio_messy_mod.F90.o
[ 33%] Building Fortran object src/HEMCO/src/Core/CMakeFiles/HCO.dir/hco_calc_mod.F90.o
[ 33%] Building Fortran object src/HEMCO/src/Core/CMakeFiles/HCO.dir/hcoio_write_std_mod.F90.o
[ 33%] Building Fortran object src/HEMCO/src/Core/CMakeFiles/HCO.dir/hco_fluxarr_mod.F90.o
[ 33%] Building Fortran object src/HEMCO/src/Core/CMakeFiles/HCO.dir/hco_restart_mod.F90.o
[ 33%] Building Fortran object src/HEMCO/src/Core/CMakeFiles/HCO.dir/hcoio_diagn_mod.F90.o
[ 33%] Building Fortran object src/GEOS-Chem/Headers/CMakeFiles/Headers.dir/state_diag_mod.F90.o
[ 33%] Building Fortran object src/HEMCO/src/Core/CMakeFiles/HCO.dir/hco_geotools_mod.F90.o
[ 33%] Building Fortran object src/HEMCO/src/Core/CMakeFiles/HCO.dir/hcoio_read_std_mod.F90.o
[ 33%] Building Fortran object src/HEMCO/src/Core/CMakeFiles/HCO.dir/hcoio_dataread_mod.F90.o
[ 33%] Building Fortran object src/HEMCO/src/Core/CMakeFiles/HCO.dir/hco_readlist_mod.F90.o
[ 33%] Building Fortran object src/HEMCO/src/Core/CMakeFiles/HCO.dir/hco_config_mod.F90.o
[ 34%] Building Fortran object src/HEMCO/src/Core/CMakeFiles/HCO.dir/hco_driver_mod.F90.o
[ 34%] Linking Fortran static library libHCO.a
[ 34%] Built target HCO
[ 34%] Building Fortran object src/HEMCO/src/Extensions/CMakeFiles/HCOX.dir/drydep_toolbox_mod.F90.o
[ 34%] Building Fortran object src/HEMCO/src/Extensions/CMakeFiles/HCOX.dir/hcox_state_mod.F90.o
[ 34%] Building Fortran object src/HEMCO/src/Extensions/CMakeFiles/HCOX.dir/hcox_tools_mod.F90.o
[ 36%] Building Fortran object src/HEMCO/src/Extensions/CMakeFiles/HCOX.dir/ocean_toolbox_mod.F90.o
[ 37%] Building Fortran object src/HEMCO/src/Extensions/CMakeFiles/HCOX.dir/hcox_finn_mod.F90.o
[ 37%] Building Fortran object src/HEMCO/src/Extensions/CMakeFiles/HCOX.dir/hcox_custom_mod.F90.o
[ 37%] Building Fortran object src/HEMCO/src/Extensions/CMakeFiles/HCOX.dir/hcox_dustginoux_mod.F90.o
[ 37%] Building Fortran object src/HEMCO/src/Extensions/CMakeFiles/HCOX.dir/hcox_gc_POPs_mod.F90.o
[ 37%] Building Fortran object src/HEMCO/src/Extensions/CMakeFiles/HCOX.dir/hcox_dustdead_mod.F.o
[ 39%] Building Fortran object src/HEMCO/src/Extensions/CMakeFiles/HCOX.dir/hcox_gc_RnPbBe_mod.F90.o
[ 39%] Building Fortran object src/HEMCO/src/Extensions/CMakeFiles/HCOX.dir/hcox_gfed_mod.F90.o
[ 40%] Linking Fortran static library libHeaders.a
[ 40%] Built target Headers
[ 40%] Building Fortran object src/HEMCO/src/Extensions/CMakeFiles/HCOX.dir/hcox_iodine_mod.F90.o
[ 40%] Building Fortran object src/GEOS-Chem/GeosUtil/CMakeFiles/JulDay.dir/julday_mod.F90.o
[ 40%] Linking Fortran static library libJulDay.a
[ 40%] Built target JulDay
[ 40%] Building Fortran object src/HEMCO/src/Extensions/CMakeFiles/HCOX.dir/hcox_lightnox_mod.F90.o
[ 42%] Building Fortran object src/HEMCO/src/Extensions/CMakeFiles/HCOX.dir/hcox_megan_mod.F90.o
[ 43%] Building Fortran object src/GEOS-Chem/NcdfUtil/CMakeFiles/NcdfUtil.dir/m_do_err_out.F90.o
[ 43%] Building Fortran object src/GEOS-Chem/NcdfUtil/CMakeFiles/NcdfUtil.dir/m_netcdf_io_checks.F90.o
[ 43%] Building Fortran object src/GEOS-Chem/NcdfUtil/CMakeFiles/NcdfUtil.dir/m_netcdf_io_close.F90.o
[ 43%] Building Fortran object src/GEOS-Chem/NcdfUtil/CMakeFiles/NcdfUtil.dir/m_netcdf_io_create.F90.o
[ 45%] Building Fortran object src/GEOS-Chem/NcdfUtil/CMakeFiles/NcdfUtil.dir/m_netcdf_io_define.F90.o
[ 45%] Building Fortran object src/GEOS-Chem/NcdfUtil/CMakeFiles/NcdfUtil.dir/m_netcdf_io_get_dimlen.F90.o
[ 45%] Building Fortran object src/HEMCO/src/Extensions/CMakeFiles/HCOX.dir/hcox_paranox_mod.F90.o
[ 45%] Building Fortran object src/GEOS-Chem/NcdfUtil/CMakeFiles/NcdfUtil.dir/m_netcdf_io_handle_err.F90.o
[ 45%] Building Fortran object src/GEOS-Chem/NcdfUtil/CMakeFiles/NcdfUtil.dir/m_netcdf_io_open.F90.o
[ 45%] Building Fortran object src/HEMCO/src/Extensions/CMakeFiles/HCOX.dir/hcox_seaflux_mod.F90.o
[ 45%] Building Fortran object src/HEMCO/src/Extensions/CMakeFiles/HCOX.dir/hcox_seasalt_mod.F90.o
[ 46%] Building Fortran object src/GEOS-Chem/NcdfUtil/CMakeFiles/NcdfUtil.dir/m_netcdf_io_read.F90.o
[ 46%] Building Fortran object src/GEOS-Chem/NcdfUtil/CMakeFiles/NcdfUtil.dir/m_netcdf_io_readattr.F90.o
[ 46%] Building Fortran object src/GEOS-Chem/NcdfUtil/CMakeFiles/NcdfUtil.dir/m_netcdf_io_write.F90.o
[ 48%] Building Fortran object src/HEMCO/src/Extensions/CMakeFiles/HCOX.dir/hcox_soilnox_mod.F90.o
[ 48%] Building Fortran object src/HEMCO/src/Extensions/CMakeFiles/HCOX.dir/hcox_volcano_mod.F90.o
[ 48%] Building Fortran object src/GEOS-Chem/NcdfUtil/CMakeFiles/NcdfUtil.dir/ncdf_mod.F90.o
[ 50%] Linking Fortran static library libNcdfUtil.a
[ 50%] Built target NcdfUtil
[ 51%] Building Fortran object src/GEOS-Chem/GeosUtil/CMakeFiles/GeosUtil.dir/regrid_a2a_mod.F90.o
[ 51%] Building Fortran object src/GEOS-Chem/GeosUtil/CMakeFiles/GeosUtil.dir/timers_mod.F90.o
[ 53%] Building Fortran object src/GEOS-Chem/GeosUtil/CMakeFiles/GeosUtil.dir/henry_mod.F90.o
[ 53%] Building Fortran object src/GEOS-Chem/GeosUtil/CMakeFiles/GeosUtil.dir/transfer_mod.F90.o
[ 53%] Building Fortran object src/GEOS-Chem/GeosUtil/CMakeFiles/GeosUtil.dir/time_mod.F90.o
[ 53%] Building Fortran object src/GEOS-Chem/GeosUtil/CMakeFiles/GeosUtil.dir/bpch2_mod.F90.o
[ 53%] Building Fortran object src/GEOS-Chem/GeosUtil/CMakeFiles/GeosUtil.dir/ifort_errmsg.F90.o
[ 54%] Building Fortran object src/GEOS-Chem/GeosUtil/CMakeFiles/GeosUtil.dir/error_mod.F90.o
[ 54%] Building Fortran object src/HEMCO/src/Extensions/CMakeFiles/HCOX.dir/hcox_driver_mod.F90.o
[ 54%] Building Fortran object src/GEOS-Chem/GeosUtil/CMakeFiles/GeosUtil.dir/file_mod.F90.o
[ 54%] Building Fortran object src/GEOS-Chem/GeosUtil/CMakeFiles/GeosUtil.dir/pressure_mod.F90.o
[ 54%] Building Fortran object src/GEOS-Chem/GeosUtil/CMakeFiles/GeosUtil.dir/gc_grid_mod.F90.o
[ 54%] Building Fortran object src/GEOS-Chem/GeosUtil/CMakeFiles/GeosUtil.dir/unitconv_mod.F90.o
[ 54%] Linking Fortran static library libHCOX.a
[ 54%] Built target HCOX
[ 56%] Building Fortran object src/HEMCO/src/Interfaces/Shared/CMakeFiles/HCOI_Shared.dir/hco_interface_common.F90.o
[ 56%] Linking Fortran static library libHCOI_Shared.a
[ 56%] Built target HCOI_Shared
[ 56%] Building Fortran object src/GEOS-Chem/GeosUtil/CMakeFiles/GeosUtil.dir/grid_registry_mod.F90.o
[ 57%] Linking Fortran static library libGeosUtil.a
[ 57%] Built target GeosUtil
[ 57%] Building Fortran object src/GEOS-Chem/ObsPack/CMakeFiles/ObsPack.dir/obspack_mod.F90.o
[ 57%] Building Fortran object src/GEOS-Chem/History/CMakeFiles/History.dir/history_util_mod.F90.o
[ 57%] Building Fortran object src/GEOS-Chem/KPP/fullchem/CMakeFiles/KPP.dir/gckpp_JacobianSP.F90.o
[ 57%] Building Fortran object src/GEOS-Chem/KPP/fullchem/CMakeFiles/KPP.dir/gckpp_Precision.F90.o
[ 57%] Building Fortran object src/GEOS-Chem/KPP/fullchem/CMakeFiles/KPP.dir/gckpp_Monitor.F90.o
[ 57%] Building Fortran object src/GEOS-Chem/KPP/fullchem/CMakeFiles/KPP.dir/stub_aciduptake_DustChemFuncs.F90.o
[ 57%] Building Fortran object src/GEOS-Chem/History/CMakeFiles/History.dir/histitem_mod.F90.o
[ 57%] Building Fortran object src/GEOS-Chem/KPP/fullchem/CMakeFiles/KPP.dir/gckpp_Parameters.F90.o
[ 57%] Building Fortran object src/GEOS-Chem/KPP/fullchem/CMakeFiles/KPP.dir/gckpp_Global.F90.o
[ 57%] Building Fortran object src/GEOS-Chem/KPP/fullchem/CMakeFiles/KPP.dir/rateLawUtilFuncs.F90.o
[ 57%] Building Fortran object src/GEOS-Chem/KPP/fullchem/CMakeFiles/KPP.dir/gckpp_Function.F90.o
[ 57%] Building Fortran object src/GEOS-Chem/KPP/fullchem/CMakeFiles/KPP.dir/gckpp_Util.F90.o
[ 57%] Building Fortran object src/GEOS-Chem/KPP/fullchem/CMakeFiles/KPP.dir/gckpp_Initialize.F90.o
[ 57%] Building Fortran object src/GEOS-Chem/KPP/fullchem/CMakeFiles/KPP.dir/stub_Hg_HetStateFuncs.F90.o
[ 57%] Building Fortran object src/GEOS-Chem/KPP/fullchem/CMakeFiles/KPP.dir/gckpp_Jacobian.F90.o
[ 57%] Building Fortran object src/GEOS-Chem/KPP/fullchem/CMakeFiles/KPP.dir/gckpp_LinearAlgebra.F90.o
[ 59%] Building Fortran object src/GEOS-Chem/History/CMakeFiles/History.dir/metahistitem_mod.F90.o
[ 59%] Building Fortran object src/GEOS-Chem/History/CMakeFiles/History.dir/histcontainer_mod.F90.o
[ 59%] Building Fortran object src/GEOS-Chem/KPP/fullchem/CMakeFiles/KPP.dir/fullchem_HetStateFuncs.F90.o
[ 59%] Linking Fortran static library libObsPack.a
[ 59%] Built target ObsPack
[ 60%] Building Fortran object src/GEOS-Chem/KPP/fullchem/CMakeFiles/KPP.dir/stub_carbon_Funcs.F90.o
[ 60%] Building Fortran object src/GEOS-Chem/KPP/fullchem/CMakeFiles/KPP.dir/fullchem_RateLawFuncs.F90.o
[ 60%] Building Fortran object src/GEOS-Chem/History/CMakeFiles/History.dir/metahistcontainer_mod.F90.o
[ 60%] Building Fortran object src/GEOS-Chem/History/CMakeFiles/History.dir/history_netcdf_mod.F90.o
[ 62%] Building Fortran object src/GEOS-Chem/KPP/fullchem/CMakeFiles/KPP.dir/gckpp_Rates.F90.o
[ 63%] Building Fortran object src/GEOS-Chem/KPP/fullchem/CMakeFiles/KPP.dir/fullchem_SulfurChemFuncs.F90.o
[ 65%] Building Fortran object src/GEOS-Chem/History/CMakeFiles/History.dir/history_mod.F90.o
[ 65%] Linking Fortran static library libHistory.a
[ 65%] Built target History
[ 66%] Building Fortran object src/GEOS-Chem/KPP/fullchem/CMakeFiles/KPP.dir/gckpp_Integrator.F90.o
[ 66%] Building Fortran object src/GEOS-Chem/KPP/fullchem/CMakeFiles/KPP.dir/fullchem_AutoReduceFuncs.F90.o
[ 68%] Building Fortran object src/GEOS-Chem/KPP/fullchem/CMakeFiles/KPP.dir/gckpp_Model.F90.o
[ 68%] Linking Fortran static library libKPP.a
[ 68%] Built target KPP
[ 68%] Building Fortran object src/GEOS-Chem/GeosCore/CMakeFiles/GeosCore.dir/RnPbBe_mod.F90.o
[ 68%] Building Fortran object src/GEOS-Chem/GeosCore/CMakeFiles/GeosCore.dir/hco_state_gc_mod.F90.o
[ 69%] Building Fortran object src/GEOS-Chem/GeosCore/CMakeFiles/GeosCore.dir/airs_ch4_mod.F90.o
[ 69%] Building Fortran object src/GEOS-Chem/GeosCore/CMakeFiles/GeosCore.dir/calc_met_mod.F90.o
[ 69%] Building Fortran object src/GEOS-Chem/GeosCore/CMakeFiles/GeosCore.dir/dust_mod.F90.o
[ 69%] Building Fortran object src/GEOS-Chem/GeosCore/CMakeFiles/GeosCore.dir/cldj_interface_mod.F90.o
[ 69%] Building Fortran object src/GEOS-Chem/GeosCore/CMakeFiles/GeosCore.dir/linoz_mod.F90.o
[ 69%] Building Fortran object src/GEOS-Chem/GeosCore/CMakeFiles/GeosCore.dir/depo_mercury_mod.F90.o
[ 69%] Building Fortran object src/GEOS-Chem/GeosCore/CMakeFiles/GeosCore.dir/seasalt_mod.F90.o
[ 69%] Building Fortran object src/GEOS-Chem/GeosCore/CMakeFiles/GeosCore.dir/get_ndep_mod.F90.o
[ 69%] Building Fortran object src/GEOS-Chem/GeosCore/CMakeFiles/GeosCore.dir/hcoi_gc_diagn_mod.F90.o
[ 71%] Building Fortran object src/GEOS-Chem/GeosCore/CMakeFiles/GeosCore.dir/gosat_ch4_mod.F90.o
[ 72%] Building Fortran object src/GEOS-Chem/GeosCore/CMakeFiles/GeosCore.dir/mapping_mod.F90.o
[ 72%] Building Fortran object src/GEOS-Chem/GeosCore/CMakeFiles/GeosCore.dir/pjc_pfix_mod.F90.o
[ 72%] Building Fortran object src/GEOS-Chem/GeosCore/CMakeFiles/GeosCore.dir/pjc_pfix_window_mod.F90.o
[ 72%] Building Fortran object src/GEOS-Chem/GeosCore/CMakeFiles/GeosCore.dir/set_boundary_conditions_mod.F90.o
[ 72%] Building Fortran object src/GEOS-Chem/GeosCore/CMakeFiles/GeosCore.dir/tccon_ch4_mod.F90.o
[ 72%] Building Fortran object src/GEOS-Chem/GeosCore/CMakeFiles/GeosCore.dir/tpcore_fvdas_mod.F90.o
[ 74%] Building Fortran object src/GEOS-Chem/GeosCore/CMakeFiles/GeosCore.dir/tpcore_window_mod.F90.o
[ 75%] Building Fortran object src/GEOS-Chem/GeosCore/CMakeFiles/GeosCore.dir/aero_drydep.F90.o
[ 77%] Building Fortran object src/GEOS-Chem/GeosCore/CMakeFiles/GeosCore.dir/cldice_HBrHOBr_rxn.F90.o
[ 77%] Building Fortran object src/GEOS-Chem/GeosCore/CMakeFiles/GeosCore.dir/diag_mod.F90.o
[ 78%] Building Fortran object src/GEOS-Chem/GeosCore/CMakeFiles/GeosCore.dir/diag3.F90.o
[ 80%] Building Fortran object src/GEOS-Chem/GeosCore/CMakeFiles/GeosCore.dir/fast_jx_mod.F90.o
[ 80%] Building Fortran object src/GEOS-Chem/GeosCore/CMakeFiles/GeosCore.dir/gamap_mod.F90.o
[ 80%] Building Fortran object src/GEOS-Chem/GeosCore/CMakeFiles/GeosCore.dir/initialize.F90.o
[ 81%] Building Fortran object src/GEOS-Chem/GeosCore/CMakeFiles/GeosCore.dir/ndxx_setup.F90.o
[ 83%] Building Fortran object src/GEOS-Chem/GeosCore/CMakeFiles/GeosCore.dir/YuIMN_Code.F90.o
[ 84%] Building Fortran object src/GEOS-Chem/GeosCore/CMakeFiles/GeosCore.dir/pops_mod.F90.o
[ 84%] Building Fortran object src/GEOS-Chem/GeosCore/CMakeFiles/GeosCore.dir/tracer_mod.F90.o
[ 86%] Building Fortran object src/GEOS-Chem/GeosCore/CMakeFiles/GeosCore.dir/hco_utilities_gc_mod.F90.o
[ 87%] Building Fortran object src/GEOS-Chem/GeosCore/CMakeFiles/GeosCore.dir/ucx_mod.F90.o
[ 89%] Building Fortran object src/GEOS-Chem/GeosCore/CMakeFiles/GeosCore.dir/photolysis_mod.F90.o
[ 89%] Building Fortran object src/GEOS-Chem/GeosCore/CMakeFiles/GeosCore.dir/linear_chem_mod.F90.o
[ 89%] Building Fortran object src/GEOS-Chem/GeosCore/CMakeFiles/GeosCore.dir/ocean_mercury_mod.F90.o
[ 89%] Building Fortran object src/GEOS-Chem/GeosCore/CMakeFiles/GeosCore.dir/planeflight_mod.F90.o
[ 89%] Building Fortran object src/GEOS-Chem/GeosCore/CMakeFiles/GeosCore.dir/fullchem_mod.F90.o
[ 89%] Building Fortran object src/GEOS-Chem/GeosCore/CMakeFiles/GeosCore.dir/aerosol_mod.F90.o
[ 89%] Building Fortran object src/GEOS-Chem/GeosCore/CMakeFiles/GeosCore.dir/carbon_gases_mod.F90.o
[ 89%] Building Fortran object src/GEOS-Chem/GeosCore/CMakeFiles/GeosCore.dir/carbon_mod.F90.o
[ 89%] Building Fortran object src/GEOS-Chem/GeosCore/CMakeFiles/GeosCore.dir/global_ch4_mod.F90.o
[ 90%] Building Fortran object src/GEOS-Chem/GeosCore/CMakeFiles/GeosCore.dir/isorropiaII_mod.F90.o
[ 90%] Building Fortran object src/GEOS-Chem/GeosCore/CMakeFiles/GeosCore.dir/land_mercury_mod.F90.o
[ 90%] Building Fortran object src/GEOS-Chem/GeosCore/CMakeFiles/GeosCore.dir/rpmares_mod.F90.o
[ 90%] Building Fortran object src/GEOS-Chem/GeosCore/CMakeFiles/GeosCore.dir/sulfate_mod.F90.o
[ 90%] Building Fortran object src/GEOS-Chem/GeosCore/CMakeFiles/GeosCore.dir/tagged_co_mod.F90.o
[ 92%] Building Fortran object src/GEOS-Chem/GeosCore/CMakeFiles/GeosCore.dir/tagged_o3_mod.F90.o
[ 92%] Building Fortran object src/GEOS-Chem/GeosCore/CMakeFiles/GeosCore.dir/co2_mod.F90.o
[ 92%] Building Fortran object src/GEOS-Chem/GeosCore/CMakeFiles/GeosCore.dir/drydep_mod.F90.o
[ 92%] Building Fortran object src/GEOS-Chem/GeosCore/CMakeFiles/GeosCore.dir/get_met_mod.F90.o
[ 92%] Building Fortran object src/GEOS-Chem/GeosCore/CMakeFiles/GeosCore.dir/sfcvmr_mod.F90.o
[ 92%] Building Fortran object src/GEOS-Chem/GeosCore/CMakeFiles/GeosCore.dir/global_br_mod.F90.o
[ 92%] Building Fortran object src/GEOS-Chem/GeosCore/CMakeFiles/GeosCore.dir/modis_lai_mod.F90.o
[ 92%] Building Fortran object src/GEOS-Chem/GeosCore/CMakeFiles/GeosCore.dir/olson_landmap_mod.F90.o
[ 93%] Building Fortran object src/GEOS-Chem/GeosCore/CMakeFiles/GeosCore.dir/set_global_ch4_mod.F90.o
[ 93%] Building Fortran object src/GEOS-Chem/GeosCore/CMakeFiles/GeosCore.dir/toms_mod.F90.o
[ 93%] Building Fortran object src/GEOS-Chem/GeosCore/CMakeFiles/GeosCore.dir/uvalbedo_mod.F90.o
[ 93%] Building Fortran object src/GEOS-Chem/GeosCore/CMakeFiles/GeosCore.dir/diagnostics_mod.F90.o
[ 93%] Building Fortran object src/GEOS-Chem/GeosCore/CMakeFiles/GeosCore.dir/input_mod.F90.o
[ 93%] Building Fortran object src/GEOS-Chem/GeosCore/CMakeFiles/GeosCore.dir/fjx_interface_mod.F90.o
[ 93%] Building Fortran object src/GEOS-Chem/GeosCore/CMakeFiles/GeosCore.dir/mercury_mod.F90.o
[ 93%] Building Fortran object src/GEOS-Chem/GeosCore/CMakeFiles/GeosCore.dir/flexgrid_read_mod.F90.o
[ 93%] Building Fortran object src/GEOS-Chem/GeosCore/CMakeFiles/GeosCore.dir/wetscav_mod.F90.o
[ 93%] Building Fortran object src/GEOS-Chem/GeosCore/CMakeFiles/GeosCore.dir/pbl_mix_mod.F90.o
[ 93%] Building Fortran object src/GEOS-Chem/GeosCore/CMakeFiles/GeosCore.dir/transport_mod.F90.o
[ 93%] Building Fortran object src/GEOS-Chem/GeosCore/CMakeFiles/GeosCore.dir/vdiff_mod.F90.o
[ 95%] Building Fortran object src/GEOS-Chem/GeosCore/CMakeFiles/GeosCore.dir/convection_mod.F90.o
[ 95%] Building Fortran object src/GEOS-Chem/GeosCore/CMakeFiles/GeosCore.dir/chemistry_mod.F90.o
[ 95%] Building Fortran object src/GEOS-Chem/GeosCore/CMakeFiles/GeosCore.dir/hco_interface_gc_mod.F90.o
[ 95%] Building Fortran object src/GEOS-Chem/GeosCore/CMakeFiles/GeosCore.dir/emissions_mod.F90.o
[ 96%] Building Fortran object src/GEOS-Chem/GeosCore/CMakeFiles/GeosCore.dir/cleanup.F90.o
[ 96%] Building Fortran object src/GEOS-Chem/GeosCore/CMakeFiles/GeosCore.dir/mixing_mod.F90.o
[ 96%] Building Fortran object src/GEOS-Chem/GeosCore/CMakeFiles/GeosCore.dir/gc_environment_mod.F90.o
[ 98%] Linking Fortran static library libGeosCore.a
[ 98%] Built target GeosCore
[ 98%] Building Fortran object src/CMakeFiles/gcclassic.dir/GEOS-Chem/Interfaces/GCClassic/main.F90.o
[100%] Linking Fortran executable ../bin/gcclassic
[100%] Built target gcclassic
