*************   S T A R T I N G   G E O S - C H E M   *************

===> Mode of operation         : GEOS-Chem "Classic"
===> GEOS-Chem version         : 14.3.0
===> Compiler                  : GNU Fortran compiler (aka gfortran)
===> Flexible precision set to : 8-byte real (aka REAL*8)
===> Parallelization w/ OpenMP : ON
===> Binary punch diagnostics  : OFF
===> netCDF diagnostics        : ON
===> netCDF file compression   : SUPPORTED
===> Luo et al (2019) wetdep?  : OFF

===> SIMULATION START TIME: 2024/02/27 12:47 <===

===============================================================================
G E O S - C H E M   U S E R   I N P U T

READ_INPUT_FILE: Opening ./geoschem_config.yml

SIMULATION SETTINGS
-------------------
Simulation name             : fullchem
CHEM_INPUTS directory       : /shared/ucl/depts/uptrop/uclgcfs/gcgrid/gcdata/ExtData/CHEM_INPUTS/
Species database file       : ./species_database.yml
Turn on verbose output      :     F
Verbose output printed on   : root core only
Start time of run           : 20190801 000000
End time of run             : 20200101 000000
Data Directory              : /shared/ucl/depts/uptrop/uclgcfs/gcgrid/gcdata/ExtData/
Meteorology field           : MERRA2
Turn on GEOS-Chem timers    :     F

GRID SETTINGS
------------
Grid resolution             : 4.0x5.0
Min/max longitude           :  -180.0000   180.0000
Min/max latitude            :   -90.0000    90.0000
X grid dimension            :    72
Y grid dimension            :    46
Z grid dimension            :    47
Use half-sized polar boxes? :     T
Center on Intl Date Line?   :     T
Is this a nested-grid sim?  :     F
 --> Buffer zone (N S E W ) :     0    0    0    0

TIMESTEP SETTINGS
-----------------
Transport/Convection [sec]  :   600
Chemistry/Emissions  [sec]  :  1200
RRTMG rad transfer   [sec]  : 10800

TRANSPORT SETTINGS
------------------
Turn on transport?          :     T
Let TPCORE Fill negatives?  :     T
IORD, JORD, KORD for TPCORE?:     3    3    7

CONVECTION SETTINGS
-------------------
Turn on cloud convection?   :     T

PBL MIXING SETTINGS
-------------------
Turn on PBL mixing?         :     T
Turn on non-local PBL?      :     T

AEROSOL SETTINGS
----------------
Online SULFATE AEROSOLS?    :     T
Metal catalyzed SO2 ox.?    :     T
Online CARBON AEROSOLS?     :     T
Brown Carbon Aerosol?       :     F
BC Absorption Enhancement?  :     T
Hydrophilic BC AE factor    :     1.50
Hydrophobic BC AE factor    :     1.00
Online COMPLEX SOA?         :     F
Semivolatile POA?           :     F
Online DUST AEROSOLS?       :     T
Acid uptake on dust?        :     F
Online SEA SALT AEROSOLS?   :     T
Accum  SEA SALT radii [um]  :     0.01 -     0.50
Coarse SEA SALT radii [um]  :     0.50 -     8.00
MARINE ORGANIC AEROSOLS?    :     F
Settle strat. aerosols?     :     T
Online SOLID PSC aerosols?  :     T
Allow hom. NAT nucleation?  :     F
NAT supercooling requirement:     3.00K
Ice supersaturation req.    :    20.00K
Perform PSC het. chemistry? :     T
Use strat. aerosol OD?      :     T

DRY DEPOSITION SETTINGS
-----------------------
Turn on dry deposition?     :     T
Dry dep over full PBL?      :     F
Turn on CO2 effect?         :     F
CO2 level                   :   600.00
CO2 reference level         :   380.00
RIX scaling factor          :     1.00

WET DEPOSITION SETTINGS
-----------------------
Turn on wet deposition?     :     T

CHEMISTRY SETTINGS
------------------
Turn on chemistry?          :     T
Use linear. mesospheric chem:     T
 => Use Linoz for O3?       :     T
Online strat. H2O?          :     T
Use robust strat H2O BC?    :     T
GAMMA HO2                   : 0.20
Use auto-reduce solver?     :     F
Use target species threshold:     T
OH tuning factor:             5.0E-05
NO2 tuning factor:            1.0E-04
Keep halogen spec. active?  :     F
Use append in auto-reduce?  :     F

PHOTOLYSIS SETTINGS
-------------------
Turn on photolysis?         :     T
FAST-JX input directory     : /shared/ucl/depts/uptrop/uclgcfs/gcgrid/gcdata/ExtData/CHEM_INPUTS/FAST_JX/v2021-10/
Cloud-J input directory     : /home/ucfacb0/Scratch/CLOUD_J/
Use online ozone?           :     T
Use ozone from met?         :     T
Use TOMS/SBUV ozone?        :     F
Photolyse nitrate aerosol?  :     T
JNITs scaling of JHNO3      :  100.000
JNIT scaling of JHNO3       :  100.000
JNIT(s) channel A (HONO)    :   66.667
JNIT(s) channel B (NO2)     :   33.333

NOTE ABOUT OVERHEAD O3 FOR FAST-JX:
 Online O3 from GEOS-Chem will be used
 to weight the O3 column within the
 chemistry grid and O3 from met or TOMS
 will be used outside the chemistry grid.

RRTMG SETTINGS
--------------
AOD output wavelength (nm)  :   550.0
Turn on radiation?          :     F
Consider longwave?          :     F
Consider shortwave?         :     F
Clear-sky flux?             :     F
All-sky flux?               :     F
CO2 VMR in ppmv             :     T
Fixed dyn. heat. assumption?:     F
 --> Seasonal evolution?    :     F
 --> Extend to TOA?         :     F
 --> Read in dyn. heating?  :     F

OBSPACK SETTINGS
----------------
Turn on ObsPack diagnostic? :     F
Suppress logfile output?    :     F
ObsPack input file          : ./obspack_co2_1_OCO2MIP_2018-11-28.YYYYMMDD.nc
ObsPack output file         : ./OutputDir/GEOSChem.ObsPack.YYYYMMDD_hhmmz.nc4

PLANEFLIGHT DIAGNOSTIC SETTINGS
-------------------------------
Turn on planeflight diag?   :     F
Flight track input file     : Planeflight.dat.YYYYMMDD
Output file name            : plane.log.YYYYMMDD

TIMESTEPS SETTINGS
------------------
Chemistry  Timestep [sec]   :   1200
Convection Timestep [sec]   :    600
Dynamics   Timestep [sec]   :    600
Emission   Timestep [sec]   :   1200
Unit Conv  Timestep [sec]   :    600
Diagnostic Timestep [sec]   :   1200
Radiation  Timestep [sec]   :  10800

!!!!!!!!!!!!!!!!!!!!!!!!!!!!!!!!!!!!!!!!!!!!!!!!!!!!!!!!!!!!!!!!!!!!!!!!!!!!!!!
!!! GEOS-CHEM IS IN DRY-RUN MODE!
!!!
!!! You will NOT get output for this run!
!!! Use this command to validate a GEOS-Chem run configuration:
!!!   ./gcclassic --dryrun > log
!!!
!!! REMOVE THE --dryrun ARGUMENT FROM THE COMMAND LINE
!!! BEFORE RUNNING A GEOS-Chem PRODUCTION SIMULATION!
!!!!!!!!!!!!!!!!!!!!!!!!!!!!!!!!!!!!!!!!!!!!!!!!!!!!!!!!!!!!!!!!!!!!!!!!!!!!!!!
!!! Start Date       : 20190801 000000
!!! End Date         : 20200101 000000
!!! Simulation       : fullchem
!!! Meteorology      : MERRA2
!!! Grid Resolution  : 4.0x5.0
!!!!!!!!!!!!!!!!!!!!!!!!!!!!!!!!!!!!!!!!!!!!!!!!!!!!!!!!!!!!!!!!!!!!!!!!!!!!!!!


%%%%%%%%%%%%%%% GLOBAL GRID %%%%%%%%%%%%%%%

Grid box longitude centers [degrees]: 
-180.00000 -175.00000 -170.00000 -165.00000 -160.00000 -155.00000 -150.00000
-145.00000 -140.00000 -135.00000 -130.00000 -125.00000 -120.00000 -115.00000
-110.00000 -105.00000 -100.00000  -95.00000  -90.00000  -85.00000  -80.00000
 -75.00000  -70.00000  -65.00000  -60.00000  -55.00000  -50.00000  -45.00000
 -40.00000  -35.00000  -30.00000  -25.00000  -20.00000  -15.00000  -10.00000
  -5.00000    0.00000    5.00000   10.00000   15.00000   20.00000   25.00000
  30.00000   35.00000   40.00000   45.00000   50.00000   55.00000   60.00000
  65.00000   70.00000   75.00000   80.00000   85.00000   90.00000   95.00000
 100.00000  105.00000  110.00000  115.00000  120.00000  125.00000  130.00000
 135.00000  140.00000  145.00000  150.00000  155.00000  160.00000  165.00000
 170.00000  175.00000

Grid box latitude centers [degrees]: 
 -89.00000  -86.00000  -82.00000  -78.00000  -74.00000  -70.00000  -66.00000
 -62.00000  -58.00000  -54.00000  -50.00000  -46.00000  -42.00000  -38.00000
 -34.00000  -30.00000  -26.00000  -22.00000  -18.00000  -14.00000  -10.00000
  -6.00000   -2.00000    2.00000    6.00000   10.00000   14.00000   18.00000
  22.00000   26.00000   30.00000   34.00000   38.00000   42.00000   46.00000
  50.00000   54.00000   58.00000   62.00000   66.00000   70.00000   74.00000
  78.00000   82.00000   86.00000   89.00000

%%%%%%%%%%%% USER-DEFINED GRID %%%%%%%%%%%%

  XMinOffset :            0
  XMaxOffset :           71
  YMinOffset :            0
  YMaxOffset :           45


Grid box longitude centers [degrees]: 
-180.00000 -175.00000 -170.00000 -165.00000 -160.00000 -155.00000 -150.00000
-145.00000 -140.00000 -135.00000 -130.00000 -125.00000 -120.00000 -115.00000
-110.00000 -105.00000 -100.00000  -95.00000  -90.00000  -85.00000  -80.00000
 -75.00000  -70.00000  -65.00000  -60.00000  -55.00000  -50.00000  -45.00000
 -40.00000  -35.00000  -30.00000  -25.00000  -20.00000  -15.00000  -10.00000
  -5.00000    0.00000    5.00000   10.00000   15.00000   20.00000   25.00000
  30.00000   35.00000   40.00000   45.00000   50.00000   55.00000   60.00000
  65.00000   70.00000   75.00000   80.00000   85.00000   90.00000   95.00000
 100.00000  105.00000  110.00000  115.00000  120.00000  125.00000  130.00000
 135.00000  140.00000  145.00000  150.00000  155.00000  160.00000  165.00000
 170.00000  175.00000

Grid box longitude edges [degrees]: 
-182.50000 -177.50000 -172.50000 -167.50000 -162.50000 -157.50000 -152.50000
-147.50000 -142.50000 -137.50000 -132.50000 -127.50000 -122.50000 -117.50000
-112.50000 -107.50000 -102.50000  -97.50000  -92.50000  -87.50000  -82.50000
 -77.50000  -72.50000  -67.50000  -62.50000  -57.50000  -52.50000  -47.50000
 -42.50000  -37.50000  -32.50000  -27.50000  -22.50000  -17.50000  -12.50000
  -7.50000   -2.50000    2.50000    7.50000   12.50000   17.50000   22.50000
  27.50000   32.50000   37.50000   42.50000   47.50000   52.50000   57.50000
  62.50000   67.50000   72.50000   77.50000   82.50000   87.50000   92.50000
  97.50000  102.50000  107.50000  112.50000  117.50000  122.50000  127.50000
 132.50000  137.50000  142.50000  147.50000  152.50000  157.50000  162.50000
 167.50000  172.50000  177.50000

Grid box latitude centers [degrees]: 
 -89.00000  -86.00000  -82.00000  -78.00000  -74.00000  -70.00000  -66.00000
 -62.00000  -58.00000  -54.00000  -50.00000  -46.00000  -42.00000  -38.00000
 -34.00000  -30.00000  -26.00000  -22.00000  -18.00000  -14.00000  -10.00000
  -6.00000   -2.00000    2.00000    6.00000   10.00000   14.00000   18.00000
  22.00000   26.00000   30.00000   34.00000   38.00000   42.00000   46.00000
  50.00000   54.00000   58.00000   62.00000   66.00000   70.00000   74.00000
  78.00000   82.00000   86.00000   89.00000

Grid box latitude edges [degrees]: 
 -90.00000  -88.00000  -84.00000  -80.00000  -76.00000  -72.00000  -68.00000
 -64.00000  -60.00000  -56.00000  -52.00000  -48.00000  -44.00000  -40.00000
 -36.00000  -32.00000  -28.00000  -24.00000  -20.00000  -16.00000  -12.00000
  -8.00000   -4.00000    0.00000    4.00000    8.00000   12.00000   16.00000
  20.00000   24.00000   28.00000   32.00000   36.00000   40.00000   44.00000
  48.00000   52.00000   56.00000   60.00000   64.00000   68.00000   72.00000
  76.00000   80.00000   84.00000   88.00000   90.00000

SIN( grid box latitude edges )
  -1.00000   -0.99939   -0.99452   -0.98481   -0.97030   -0.95106   -0.92718
  -0.89879   -0.86603   -0.82904   -0.78801   -0.74314   -0.69466   -0.64279
  -0.58779   -0.52992   -0.46947   -0.40674   -0.34202   -0.27564   -0.20791
  -0.13917   -0.06976    0.00000    0.06976    0.13917    0.20791    0.27564
   0.34202    0.40674    0.46947    0.52992    0.58779    0.64279    0.69466
   0.74314    0.78801    0.82904    0.86603    0.89879    0.92718    0.95106
   0.97030    0.98481    0.99452    0.99939    1.00000
READ_DRYDEP_INPUTS: Opening /shared/ucl/depts/uptrop/uclgcfs/gcgrid/gcdata/ExtData/CHEM_INPUTS/Olson_Land_Map_201203/Olson_2001_Drydep_Inputs.nc
LINOZ (LINOZ_READ): Opening /shared/ucl/depts/uptrop/uclgcfs/gcgrid/gcdata/ExtData/CHEM_INPUTS/Linoz_200910/Linoz_March2007.dat
HISTORY (INIT): Opening ./HISTORY.rc
%%%%%%%%%%%%%%%%%%%%%%%%%%%%%%%%%%%%%%%%%%%%%%%%%%%%%%%%%%%%%%%%%%%%%%%%%%%%%%%
%%%%%               HEMCO: Harmonized Emissions Component                 %%%%%
%%%%%               You are using HEMCO version 3.8.0                     %%%%%
%%%%%%%%%%%%%%%%%%%%%%%%%%%%%%%%%%%%%%%%%%%%%%%%%%%%%%%%%%%%%%%%%%%%%%%%%%%%%%%
HEMCO (INIT): Opening ./HEMCO_Config.rc

HEMCO verbose output is OFF
HEMCO (INIT): Opening ./HEMCO_Config.rc
HEMCO (INIT): Opening ./HEMCO_Config.rc.gmao_metfields
HEMCO (PARANOX): Opening /shared/ucl/depts/uptrop/uclgcfs/gcgrid/gcdata/ExtData/HEMCO/PARANOX/v2015-02/ship_plume_lut_02ms.nc
HEMCO (PARANOX): Opening /shared/ucl/depts/uptrop/uclgcfs/gcgrid/gcdata/ExtData/HEMCO/PARANOX/v2015-02/ship_plume_lut_06ms.nc
HEMCO (PARANOX): Opening /shared/ucl/depts/uptrop/uclgcfs/gcgrid/gcdata/ExtData/HEMCO/PARANOX/v2015-02/ship_plume_lut_10ms.nc
HEMCO (PARANOX): Opening /shared/ucl/depts/uptrop/uclgcfs/gcgrid/gcdata/ExtData/HEMCO/PARANOX/v2015-02/ship_plume_lut_14ms.nc
HEMCO (PARANOX): Opening /shared/ucl/depts/uptrop/uclgcfs/gcgrid/gcdata/ExtData/HEMCO/PARANOX/v2015-02/ship_plume_lut_18ms.nc
HEMCO (LIGHTNOX): Opening /shared/ucl/depts/uptrop/uclgcfs/gcgrid/gcdata/ExtData/HEMCO/LIGHTNOX/v2014-07/light_dist.ott2010.dat
Using HEMCO extension: Volcano (volcanic SO2 emissions)
HEMCO (INIT): Opening ./HEMCO_Diagn.rc
HEMCO: Opening /shared/ucl/depts/uptrop/uclgcfs/gcgrid/gcdata/ExtData/HEMCO/XIAO/v2014-09/C3H8_C2H6_ngas.geos.1x1.nc
HEMCO: Opening /shared/ucl/depts/uptrop/uclgcfs/gcgrid/gcdata/ExtData/HEMCO/BIOFUEL/v2019-08/biofuel.geos.2x25.nc
HEMCO: Opening /shared/ucl/depts/uptrop/uclgcfs/gcgrid/gcdata/ExtData/HEMCO/BROMINE/v2015-02/Bromocarb_Liang2010.nc
HEMCO: Opening /shared/ucl/depts/uptrop/uclgcfs/gcgrid/gcdata/ExtData/HEMCO/ACET/v2014-07/ACET_seawater.generic.1x1.nc
HEMCO: Opening /shared/ucl/depts/uptrop/uclgcfs/gcgrid/gcdata/ExtData/HEMCO/MOH/v2019-12/MOH_seawater.low.kgCm3.generic.1x1.nc
HEMCO: Opening /shared/ucl/depts/uptrop/uclgcfs/gcgrid/gcdata/ExtData/HEMCO/MEGAN/v2018-05/MEGAN2.1_EF.geos.025x03125.nc
HEMCO: Opening /shared/ucl/depts/uptrop/uclgcfs/gcgrid/gcdata/ExtData/HEMCO/MEGAN/v2018-05/CLM4_PFT.geos.025x03125.v201805.nc
HEMCO: Opening /shared/ucl/depts/uptrop/uclgcfs/gcgrid/gcdata/ExtData/HEMCO/TIMEZONES/v2015-02/timezones_voronoi_1x1.nc
HEMCO: Opening /shared/ucl/depts/uptrop/uclgcfs/gcgrid/gcdata/ExtData/GEOS_4x5/MERRA2/2015/01/MERRA2.20150101.CN.4x5.nc4
HEMCO: Opening /shared/ucl/depts/uptrop/uclgcfs/gcgrid/gcdata/ExtData/HEMCO/OLSON_MAP/v2019-02/Olson_2001_Land_Type_Masks.025x025.generic.nc
HEMCO: Opening /shared/ucl/depts/uptrop/uclgcfs/gcgrid/gcdata/ExtData/HEMCO/SfcFix/v2019-12/surface_VMR_OCS.2x25.nc
HEMCO: Opening /shared/ucl/depts/uptrop/uclgcfs/gcgrid/gcdata/ExtData/HEMCO/SfcFix/v2019-12/surface_VMR_H2.2x25.nc
HEMCO: Opening /shared/ucl/depts/uptrop/uclgcfs/gcgrid/gcdata/ExtData/HEMCO/OCEAN_O3_DRYDEP/v2020-02/WOA_2013_salinity.nc
HEMCO: Opening /shared/ucl/depts/uptrop/uclgcfs/gcgrid/gcdata/ExtData/HEMCO/AnnualScalar/v2014-07/AnnualScalar.geos.1x1.nc
HEMCO: Opening /shared/ucl/depts/uptrop/uclgcfs/gcgrid/gcdata/ExtData/HEMCO/EDGARv42/v2015-02/NO/EDGAR_hourly_NOxScal.nc
HEMCO: Opening /shared/ucl/depts/uptrop/uclgcfs/gcgrid/gcdata/ExtData/HEMCO/VerticalScaleFactors/v2021-05/gc_layers.nc
HEMCO: Opening /shared/ucl/depts/uptrop/uclgcfs/gcgrid/gcdata/ExtData/HEMCO/MASKS/v2018-09/China_mask.generic.1x1.nc
HEMCO: Opening /shared/ucl/depts/uptrop/uclgcfs/gcgrid/gcdata/ExtData/HEMCO/MASKS/v2019-05/India_mask.generic.1x1.nc
HEMCO: Opening /shared/ucl/depts/uptrop/uclgcfs/gcgrid/gcdata/ExtData/HEMCO/AnnualScalar/v2014-07/AnnualScalar.geos.1x1.nc
HEMCO: Opening /shared/ucl/depts/uptrop/uclgcfs/gcgrid/gcdata/ExtData/HEMCO/CEDS/v2021-06/2019/NO-em-anthro_CMIP_CEDS_2019.nc
HEMCO: Opening /shared/ucl/depts/uptrop/uclgcfs/gcgrid/gcdata/ExtData/HEMCO/CEDS/v2021-06/2019/CO-em-anthro_CMIP_CEDS_2019.nc
HEMCO: Opening /shared/ucl/depts/uptrop/uclgcfs/gcgrid/gcdata/ExtData/HEMCO/CEDS/v2021-06/2019/SO2-em-anthro_CMIP_CEDS_2019.nc
HEMCO: Opening /shared/ucl/depts/uptrop/uclgcfs/gcgrid/gcdata/ExtData/HEMCO/CEDS/v2021-06/2019/NH3-em-anthro_CMIP_CEDS_2019.nc
HEMCO: Opening /shared/ucl/depts/uptrop/uclgcfs/gcgrid/gcdata/ExtData/HEMCO/CEDS/v2021-06/2019/BC-em-anthro_CMIP_CEDS_2019.nc
HEMCO: Opening /shared/ucl/depts/uptrop/uclgcfs/gcgrid/gcdata/ExtData/HEMCO/CEDS/v2021-06/2019/OC-em-anthro_CMIP_CEDS_2019.nc
HEMCO: Opening /shared/ucl/depts/uptrop/uclgcfs/gcgrid/gcdata/ExtData/HEMCO/CEDS/v2021-06/2019/EOH-em-anthro_CMIP_CEDS_2019.nc
HEMCO: Opening /shared/ucl/depts/uptrop/uclgcfs/gcgrid/gcdata/ExtData/HEMCO/CEDS/v2021-06/2019/ALK4_butanes-em-anthro_CMIP_CEDS_2019.nc
HEMCO: Opening /shared/ucl/depts/uptrop/uclgcfs/gcgrid/gcdata/ExtData/HEMCO/CEDS/v2021-06/2019/ALK4_pentanes-em-anthro_CMIP_CEDS_2019.nc
HEMCO: Opening /shared/ucl/depts/uptrop/uclgcfs/gcgrid/gcdata/ExtData/HEMCO/CEDS/v2021-06/2019/ALK4_hexanes-em-anthro_CMIP_CEDS_2019.nc
HEMCO: Opening /shared/ucl/depts/uptrop/uclgcfs/gcgrid/gcdata/ExtData/HEMCO/CEDS/v2021-06/2019/C2H4-em-anthro_CMIP_CEDS_2019.nc
HEMCO: Opening /shared/ucl/depts/uptrop/uclgcfs/gcgrid/gcdata/ExtData/HEMCO/CEDS/v2021-06/2019/PRPE-em-anthro_CMIP_CEDS_2019.nc
HEMCO: Opening /shared/ucl/depts/uptrop/uclgcfs/gcgrid/gcdata/ExtData/HEMCO/CEDS/v2021-06/2019/C2H2-em-anthro_CMIP_CEDS_2019.nc
HEMCO: Opening /shared/ucl/depts/uptrop/uclgcfs/gcgrid/gcdata/ExtData/HEMCO/CEDS/v2021-06/2019/BENZ-em-anthro_CMIP_CEDS_2019.nc
HEMCO: Opening /shared/ucl/depts/uptrop/uclgcfs/gcgrid/gcdata/ExtData/HEMCO/CEDS/v2021-06/2019/TOLU-em-anthro_CMIP_CEDS_2019.nc
HEMCO: Opening /shared/ucl/depts/uptrop/uclgcfs/gcgrid/gcdata/ExtData/HEMCO/CEDS/v2021-06/2019/XYLE-em-anthro_CMIP_CEDS_2019.nc
HEMCO: Opening /shared/ucl/depts/uptrop/uclgcfs/gcgrid/gcdata/ExtData/HEMCO/CEDS/v2021-06/2019/CH2O-em-anthro_CMIP_CEDS_2019.nc
HEMCO: Opening /shared/ucl/depts/uptrop/uclgcfs/gcgrid/gcdata/ExtData/HEMCO/CEDS/v2021-06/2019/ALD2-em-anthro_CMIP_CEDS_2019.nc
HEMCO: Opening /shared/ucl/depts/uptrop/uclgcfs/gcgrid/gcdata/ExtData/HEMCO/CEDS/v2021-06/2019/MEK-em-anthro_CMIP_CEDS_2019.nc
HEMCO: Opening /shared/ucl/depts/uptrop/uclgcfs/gcgrid/gcdata/ExtData/HEMCO/CEDS/v2021-06/2019/HCOOH-em-anthro_CMIP_CEDS_2019.nc
HEMCO: Opening /shared/ucl/depts/uptrop/uclgcfs/gcgrid/gcdata/ExtData/HEMCO/NH3/v2019-08/NH3_geos.2x25.nc
HEMCO: Opening /shared/ucl/depts/uptrop/uclgcfs/gcgrid/gcdata/ExtData/HEMCO/NH3/v2018-04/NH3_Arctic_seabirds.nc
HEMCO: Opening /shared/ucl/depts/uptrop/uclgcfs/gcgrid/gcdata/ExtData/HEMCO/C2H6_2010/v2019-06/C2H6_global_anth_biof.201008.2x25.nc
HEMCO: Opening /shared/ucl/depts/uptrop/uclgcfs/gcgrid/gcdata/ExtData/HEMCO/IODINE/v2020-02/CH3I_monthly_emissions_Ordonez_2012_COARDS.nc
HEMCO: Opening /shared/ucl/depts/uptrop/uclgcfs/gcgrid/gcdata/ExtData/HEMCO/IODINE/v2020-02/CH2I2_monthly_emissions_Ordonez_2012_COARDS.nc
HEMCO: Opening /shared/ucl/depts/uptrop/uclgcfs/gcgrid/gcdata/ExtData/HEMCO/IODINE/v2020-02/CH2ICl_monthly_emissions_Ordonez_2012_COARDS.nc
HEMCO: Opening /shared/ucl/depts/uptrop/uclgcfs/gcgrid/gcdata/ExtData/HEMCO/IODINE/v2020-02/CH2IBr_monthly_emissions_Ordonez_2012_COARDS.nc
HEMCO: Opening /shared/ucl/depts/uptrop/uclgcfs/gcgrid/gcdata/ExtData/HEMCO/CEDS/v2021-06/2019/CO-em-anthro_CMIP_CEDS_2019.nc
HEMCO: Opening /shared/ucl/depts/uptrop/uclgcfs/gcgrid/gcdata/ExtData/HEMCO/CEDS/v2021-06/2019/SO2-em-anthro_CMIP_CEDS_2019.nc
HEMCO: Opening /shared/ucl/depts/uptrop/uclgcfs/gcgrid/gcdata/ExtData/HEMCO/CEDS/v2021-06/2019/NH3-em-anthro_CMIP_CEDS_2019.nc
HEMCO: Opening /shared/ucl/depts/uptrop/uclgcfs/gcgrid/gcdata/ExtData/HEMCO/CEDS/v2021-06/2019/BC-em-anthro_CMIP_CEDS_2019.nc
HEMCO: Opening /shared/ucl/depts/uptrop/uclgcfs/gcgrid/gcdata/ExtData/HEMCO/CEDS/v2021-06/2019/OC-em-anthro_CMIP_CEDS_2019.nc
HEMCO: Opening /shared/ucl/depts/uptrop/uclgcfs/gcgrid/gcdata/ExtData/HEMCO/CEDS/v2021-06/2019/EOH-em-anthro_CMIP_CEDS_2019.nc
HEMCO: Opening /shared/ucl/depts/uptrop/uclgcfs/gcgrid/gcdata/ExtData/HEMCO/CEDS/v2021-06/2019/C2H6-em-anthro_CMIP_CEDS_2019.nc
HEMCO: Opening /shared/ucl/depts/uptrop/uclgcfs/gcgrid/gcdata/ExtData/HEMCO/CEDS/v2021-06/2019/C3H8-em-anthro_CMIP_CEDS_2019.nc
HEMCO: Opening /shared/ucl/depts/uptrop/uclgcfs/gcgrid/gcdata/ExtData/HEMCO/CEDS/v2021-06/2019/ALK4_butanes-em-anthro_CMIP_CEDS_2019.nc
HEMCO: Opening /shared/ucl/depts/uptrop/uclgcfs/gcgrid/gcdata/ExtData/HEMCO/CEDS/v2021-06/2019/ALK4_pentanes-em-anthro_CMIP_CEDS_2019.nc
HEMCO: Opening /shared/ucl/depts/uptrop/uclgcfs/gcgrid/gcdata/ExtData/HEMCO/CEDS/v2021-06/2019/ALK4_hexanes-em-anthro_CMIP_CEDS_2019.nc
HEMCO: Opening /shared/ucl/depts/uptrop/uclgcfs/gcgrid/gcdata/ExtData/HEMCO/CEDS/v2021-06/2019/C2H4-em-anthro_CMIP_CEDS_2019.nc
HEMCO: Opening /shared/ucl/depts/uptrop/uclgcfs/gcgrid/gcdata/ExtData/HEMCO/CEDS/v2021-06/2019/PRPE-em-anthro_CMIP_CEDS_2019.nc
HEMCO: Opening /shared/ucl/depts/uptrop/uclgcfs/gcgrid/gcdata/ExtData/HEMCO/CEDS/v2021-06/2019/C2H2-em-anthro_CMIP_CEDS_2019.nc
HEMCO: Opening /shared/ucl/depts/uptrop/uclgcfs/gcgrid/gcdata/ExtData/HEMCO/CEDS/v2021-06/2019/BENZ-em-anthro_CMIP_CEDS_2019.nc
HEMCO: Opening /shared/ucl/depts/uptrop/uclgcfs/gcgrid/gcdata/ExtData/HEMCO/CEDS/v2021-06/2019/TOLU-em-anthro_CMIP_CEDS_2019.nc
HEMCO: Opening /shared/ucl/depts/uptrop/uclgcfs/gcgrid/gcdata/ExtData/HEMCO/CEDS/v2021-06/2019/XYLE-em-anthro_CMIP_CEDS_2019.nc
HEMCO: Opening /shared/ucl/depts/uptrop/uclgcfs/gcgrid/gcdata/ExtData/HEMCO/CEDS/v2021-06/2019/CH2O-em-anthro_CMIP_CEDS_2019.nc
HEMCO: Opening /shared/ucl/depts/uptrop/uclgcfs/gcgrid/gcdata/ExtData/HEMCO/CEDS/v2021-06/2019/ALD2-em-anthro_CMIP_CEDS_2019.nc
HEMCO: Opening /shared/ucl/depts/uptrop/uclgcfs/gcgrid/gcdata/ExtData/HEMCO/CEDS/v2021-06/2019/MEK-em-anthro_CMIP_CEDS_2019.nc
HEMCO: Opening /shared/ucl/depts/uptrop/uclgcfs/gcgrid/gcdata/ExtData/HEMCO/CEDS/v2021-06/2019/HCOOH-em-anthro_CMIP_CEDS_2019.nc
HEMCO: Opening /shared/ucl/depts/uptrop/uclgcfs/gcgrid/gcdata/ExtData/HEMCO/CEDS/v2021-06/2019/NO-em-anthro_CMIP_CEDS_2019.nc
HEMCO: Opening /shared/ucl/depts/uptrop/uclgcfs/gcgrid/gcdata/ExtData/HEMCO/AEIC2019/v2022-03/2019_monmean/AEIC_monmean_201908.0.5x0.625.36L.nc
HEMCO: Opening /shared/ucl/depts/uptrop/uclgcfs/gcgrid/gcdata/ExtData/HEMCO/ALD2/v2017-03/resp.geos.2x25.nc
HEMCO: Opening /shared/ucl/depts/uptrop/uclgcfs/gcgrid/gcdata/ExtData/HEMCO/AFCID/v2018-04/PM25FINE_ECLIPSE_2015.geos.2x25.nc
HEMCO: Opening /shared/ucl/depts/uptrop/uclgcfs/gcgrid/gcdata/ExtData/HEMCO/AFCID/v2018-04/PM25FINE_MEIC_2012.generic.025x025.nc
HEMCO: Opening /shared/ucl/depts/uptrop/uclgcfs/gcgrid/gcdata/ExtData/HEMCO/AFCID/v2018-04/PM25FINE_IITB_2013.generic.025x025.nc
HEMCO: Opening /shared/ucl/depts/uptrop/uclgcfs/gcgrid/gcdata/ExtData/HEMCO/DMS/v2015-07/DMS_lana.geos.1x1.nc
HEMCO: Opening /shared/ucl/depts/uptrop/uclgcfs/gcgrid/gcdata/ExtData/HEMCO/ALD2/v2017-03/ALD2_seawater.geos.2x25.nc
HEMCO: Opening /shared/ucl/depts/uptrop/uclgcfs/gcgrid/gcdata/ExtData/HEMCO/RONO2/v2019-05/RONO2_seawater.geos.2x25.nc
HEMCO: Opening /shared/ucl/depts/uptrop/uclgcfs/gcgrid/gcdata/ExtData/HEMCO/GFED4/v2020-02/2019/GFED4_gen.025x025.201908.nc
HEMCO: Opening /shared/ucl/depts/uptrop/uclgcfs/gcgrid/gcdata/ExtData/HEMCO/UVALBEDO/v2019-06/uvalbedo.geos.2x25.nc
HEMCO: Opening /shared/ucl/depts/uptrop/uclgcfs/gcgrid/gcdata/ExtData/HEMCO/STRAT/v2015-01/Bry/GEOSCCM_Bry.200708.day.nc
HEMCO: Opening /shared/ucl/depts/uptrop/uclgcfs/gcgrid/gcdata/ExtData/HEMCO/STRAT/v2015-01/Bry/GEOSCCM_Bry.200708.night.nc
HEMCO: Opening /shared/ucl/depts/uptrop/uclgcfs/gcgrid/gcdata/ExtData/HEMCO/GMI/v2015-02/gmi.clim.OH.geos5.2x25.nc
HEMCO: Opening /shared/ucl/depts/uptrop/uclgcfs/gcgrid/gcdata/ExtData/HEMCO/GMI/v2015-02/gmi.clim.ACET.geos5.2x25.nc
HEMCO: Opening /shared/ucl/depts/uptrop/uclgcfs/gcgrid/gcdata/ExtData/HEMCO/GMI/v2015-02/gmi.clim.ACTA.geos5.2x25.nc
HEMCO: Opening /shared/ucl/depts/uptrop/uclgcfs/gcgrid/gcdata/ExtData/HEMCO/GMI/v2015-02/gmi.clim.ALD2.geos5.2x25.nc
HEMCO: Opening /shared/ucl/depts/uptrop/uclgcfs/gcgrid/gcdata/ExtData/HEMCO/GMI/v2015-02/gmi.clim.ALK4.geos5.2x25.nc
HEMCO: Opening /shared/ucl/depts/uptrop/uclgcfs/gcgrid/gcdata/ExtData/HEMCO/GMI/v2015-02/gmi.clim.C2H6.geos5.2x25.nc
HEMCO: Opening /shared/ucl/depts/uptrop/uclgcfs/gcgrid/gcdata/ExtData/HEMCO/GMI/v2015-02/gmi.clim.C3H8.geos5.2x25.nc
HEMCO: Opening /shared/ucl/depts/uptrop/uclgcfs/gcgrid/gcdata/ExtData/HEMCO/GMI/v2015-02/gmi.clim.CCl4.geos5.2x25.nc
HEMCO: Opening /shared/ucl/depts/uptrop/uclgcfs/gcgrid/gcdata/ExtData/HEMCO/GMI/v2015-02/gmi.clim.CF2Cl2.geos5.2x25.nc
HEMCO: Opening /shared/ucl/depts/uptrop/uclgcfs/gcgrid/gcdata/ExtData/HEMCO/GMI/v2015-02/gmi.clim.CF2ClBr.geos5.2x25.nc
HEMCO: Opening /shared/ucl/depts/uptrop/uclgcfs/gcgrid/gcdata/ExtData/HEMCO/GMI/v2015-02/gmi.clim.CFC113.geos5.2x25.nc
HEMCO: Opening /shared/ucl/depts/uptrop/uclgcfs/gcgrid/gcdata/ExtData/HEMCO/GMI/v2015-02/gmi.clim.CFC114.geos5.2x25.nc
HEMCO: Opening /shared/ucl/depts/uptrop/uclgcfs/gcgrid/gcdata/ExtData/HEMCO/GMI/v2015-02/gmi.clim.CFC115.geos5.2x25.nc
HEMCO: Opening /shared/ucl/depts/uptrop/uclgcfs/gcgrid/gcdata/ExtData/HEMCO/GMI/v2015-02/gmi.clim.CFCl3.geos5.2x25.nc
HEMCO: Opening /shared/ucl/depts/uptrop/uclgcfs/gcgrid/gcdata/ExtData/HEMCO/GMI/v2015-02/gmi.clim.CH2O.geos5.2x25.nc
HEMCO: Opening /shared/ucl/depts/uptrop/uclgcfs/gcgrid/gcdata/ExtData/HEMCO/GMI/v2015-02/gmi.clim.CH3CCl3.geos5.2x25.nc
HEMCO: Opening /shared/ucl/depts/uptrop/uclgcfs/gcgrid/gcdata/ExtData/HEMCO/GMI/v2015-02/gmi.clim.CH3Cl.geos5.2x25.nc
HEMCO: Opening /shared/ucl/depts/uptrop/uclgcfs/gcgrid/gcdata/ExtData/HEMCO/GMI/v2015-02/gmi.clim.CH4.geos5.2x25.nc
HEMCO: Opening /shared/ucl/depts/uptrop/uclgcfs/gcgrid/gcdata/ExtData/HEMCO/GMI/v2015-02/gmi.clim.CO.geos5.2x25.nc
HEMCO: Opening /shared/ucl/depts/uptrop/uclgcfs/gcgrid/gcdata/ExtData/HEMCO/GMI/v2015-02/gmi.clim.Cl.geos5.2x25.nc
HEMCO: Opening /shared/ucl/depts/uptrop/uclgcfs/gcgrid/gcdata/ExtData/HEMCO/GMI/v2015-02/gmi.clim.Cl2.geos5.2x25.nc
HEMCO: Opening /shared/ucl/depts/uptrop/uclgcfs/gcgrid/gcdata/ExtData/HEMCO/GMI/v2015-02/gmi.clim.Cl2O2.geos5.2x25.nc
HEMCO: Opening /shared/ucl/depts/uptrop/uclgcfs/gcgrid/gcdata/ExtData/HEMCO/GMI/v2015-02/gmi.clim.ClO.geos5.2x25.nc
HEMCO: Opening /shared/ucl/depts/uptrop/uclgcfs/gcgrid/gcdata/ExtData/HEMCO/GMI/v2015-02/gmi.clim.EOH.geos5.2x25.nc
HEMCO: Opening /shared/ucl/depts/uptrop/uclgcfs/gcgrid/gcdata/ExtData/HEMCO/GMI/v2015-02/gmi.clim.ETP.geos5.2x25.nc
HEMCO: Opening /shared/ucl/depts/uptrop/uclgcfs/gcgrid/gcdata/ExtData/HEMCO/GMI/v2015-02/gmi.clim.GLYC.geos5.2x25.nc
HEMCO: Opening /shared/ucl/depts/uptrop/uclgcfs/gcgrid/gcdata/ExtData/HEMCO/GMI/v2015-02/gmi.clim.GLYX.geos5.2x25.nc
HEMCO: Opening /shared/ucl/depts/uptrop/uclgcfs/gcgrid/gcdata/ExtData/HEMCO/GMI/v2015-02/gmi.clim.H2402.geos5.2x25.nc
HEMCO: Opening /shared/ucl/depts/uptrop/uclgcfs/gcgrid/gcdata/ExtData/HEMCO/GMI/v2015-02/gmi.clim.H2O.geos5.2x25.nc
HEMCO: Opening /shared/ucl/depts/uptrop/uclgcfs/gcgrid/gcdata/ExtData/HEMCO/GMI/v2015-02/gmi.clim.H2O2.geos5.2x25.nc
HEMCO: Opening /shared/ucl/depts/uptrop/uclgcfs/gcgrid/gcdata/ExtData/HEMCO/GMI/v2015-02/gmi.clim.HAC.geos5.2x25.nc
HEMCO: Opening /shared/ucl/depts/uptrop/uclgcfs/gcgrid/gcdata/ExtData/HEMCO/GMI/v2015-02/gmi.clim.HCFC141b.geos5.2x25.nc
HEMCO: Opening /shared/ucl/depts/uptrop/uclgcfs/gcgrid/gcdata/ExtData/HEMCO/GMI/v2015-02/gmi.clim.HCFC142b.geos5.2x25.nc
HEMCO: Opening /shared/ucl/depts/uptrop/uclgcfs/gcgrid/gcdata/ExtData/HEMCO/GMI/v2015-02/gmi.clim.HCFC22.geos5.2x25.nc
HEMCO: Opening /shared/ucl/depts/uptrop/uclgcfs/gcgrid/gcdata/ExtData/HEMCO/GMI/v2015-02/gmi.clim.HCOOH.geos5.2x25.20170108.nc
HEMCO: Opening /shared/ucl/depts/uptrop/uclgcfs/gcgrid/gcdata/ExtData/HEMCO/GMI/v2015-02/gmi.clim.HCl.geos5.2x25.nc
HEMCO: Opening /shared/ucl/depts/uptrop/uclgcfs/gcgrid/gcdata/ExtData/HEMCO/GMI/v2015-02/gmi.clim.HNO2.geos5.2x25.nc
HEMCO: Opening /shared/ucl/depts/uptrop/uclgcfs/gcgrid/gcdata/ExtData/HEMCO/GMI/v2015-02/gmi.clim.HNO3.geos5.2x25.nc
HEMCO: Opening /shared/ucl/depts/uptrop/uclgcfs/gcgrid/gcdata/ExtData/HEMCO/GMI/v2015-02/gmi.clim.HNO4.geos5.2x25.nc
HEMCO: Opening /shared/ucl/depts/uptrop/uclgcfs/gcgrid/gcdata/ExtData/HEMCO/GMI/v2015-02/gmi.clim.HOCl.geos5.2x25.nc
HEMCO: Opening /shared/ucl/depts/uptrop/uclgcfs/gcgrid/gcdata/ExtData/HEMCO/GMI/v2015-02/gmi.clim.ISOP.geos5.2x25.nc
HEMCO: Opening /shared/ucl/depts/uptrop/uclgcfs/gcgrid/gcdata/ExtData/HEMCO/GMI/v2015-02/gmi.clim.MACR.geos5.2x25.nc
HEMCO: Opening /shared/ucl/depts/uptrop/uclgcfs/gcgrid/gcdata/ExtData/HEMCO/GMI/v2015-02/gmi.clim.MAP.geos5.2x25.nc
HEMCO: Opening /shared/ucl/depts/uptrop/uclgcfs/gcgrid/gcdata/ExtData/HEMCO/GMI/v2015-02/gmi.clim.MEK.geos5.2x25.nc
HEMCO: Opening /shared/ucl/depts/uptrop/uclgcfs/gcgrid/gcdata/ExtData/HEMCO/GMI/v2015-02/gmi.clim.MGLY.geos5.2x25.nc
HEMCO: Opening /shared/ucl/depts/uptrop/uclgcfs/gcgrid/gcdata/ExtData/HEMCO/GMI/v2015-02/gmi.clim.MOH.geos5.2x25.nc
HEMCO: Opening /shared/ucl/depts/uptrop/uclgcfs/gcgrid/gcdata/ExtData/HEMCO/GMI/v2015-02/gmi.clim.MP.geos5.2x25.nc
HEMCO: Opening /shared/ucl/depts/uptrop/uclgcfs/gcgrid/gcdata/ExtData/HEMCO/GMI/v2015-02/gmi.clim.MVK.geos5.2x25.nc
HEMCO: Opening /shared/ucl/depts/uptrop/uclgcfs/gcgrid/gcdata/ExtData/HEMCO/GMI/v2015-02/gmi.clim.N2O.geos5.2x25.nc
HEMCO: Opening /shared/ucl/depts/uptrop/uclgcfs/gcgrid/gcdata/ExtData/HEMCO/GMI/v2015-02/gmi.clim.N2O5.geos5.2x25.nc
HEMCO: Opening /shared/ucl/depts/uptrop/uclgcfs/gcgrid/gcdata/ExtData/HEMCO/GMI/v2015-02/gmi.clim.NO.geos5.2x25.nc
HEMCO: Opening /shared/ucl/depts/uptrop/uclgcfs/gcgrid/gcdata/ExtData/HEMCO/GMI/v2015-02/gmi.clim.NO2.geos5.2x25.nc
HEMCO: Opening /shared/ucl/depts/uptrop/uclgcfs/gcgrid/gcdata/ExtData/HEMCO/GMI/v2015-02/gmi.clim.NO3.geos5.2x25.nc
HEMCO: Opening /shared/ucl/depts/uptrop/uclgcfs/gcgrid/gcdata/ExtData/HEMCO/GMI/v2015-02/gmi.clim.O3.geos5.2x25.nc
HEMCO: Opening /shared/ucl/depts/uptrop/uclgcfs/gcgrid/gcdata/ExtData/HEMCO/GMI/v2015-02/gmi.clim.OClO.geos5.2x25.nc
HEMCO: Opening /shared/ucl/depts/uptrop/uclgcfs/gcgrid/gcdata/ExtData/HEMCO/GMI/v2015-02/gmi.clim.PAN.geos5.2x25.nc
HEMCO: Opening /shared/ucl/depts/uptrop/uclgcfs/gcgrid/gcdata/ExtData/HEMCO/GMI/v2015-02/gmi.clim.PP.geos5.2x25.nc
HEMCO: Opening /shared/ucl/depts/uptrop/uclgcfs/gcgrid/gcdata/ExtData/HEMCO/GMI/v2015-02/gmi.clim.PPN.geos5.2x25.nc
HEMCO: Opening /shared/ucl/depts/uptrop/uclgcfs/gcgrid/gcdata/ExtData/HEMCO/GMI/v2015-02/gmi.clim.PRPE.geos5.2x25.nc
HEMCO: Opening /shared/ucl/depts/uptrop/uclgcfs/gcgrid/gcdata/ExtData/HEMCO/GMI/v2015-02/gmi.clim.PRPN.geos5.2x25.nc
HEMCO: Opening /shared/ucl/depts/uptrop/uclgcfs/gcgrid/gcdata/ExtData/HEMCO/GMI/v2015-02/gmi.clim.R4N2.geos5.2x25.nc
HEMCO: Opening /shared/ucl/depts/uptrop/uclgcfs/gcgrid/gcdata/ExtData/HEMCO/GMI/v2015-02/gmi.clim.R4P.geos5.2x25.nc
HEMCO: Opening /shared/ucl/depts/uptrop/uclgcfs/gcgrid/gcdata/ExtData/HEMCO/GMI/v2015-02/gmi.clim.RA3P.geos5.2x25.nc
HEMCO: Opening /shared/ucl/depts/uptrop/uclgcfs/gcgrid/gcdata/ExtData/HEMCO/GMI/v2015-02/gmi.clim.RB3P.geos5.2x25.nc
HEMCO: Opening /shared/ucl/depts/uptrop/uclgcfs/gcgrid/gcdata/ExtData/HEMCO/GMI/v2015-02/gmi.clim.RCHO.geos5.2x25.nc
HEMCO: Opening /shared/ucl/depts/uptrop/uclgcfs/gcgrid/gcdata/ExtData/HEMCO/GMI/v2015-02/gmi.clim.RIPA.geos5.2x25.nc
HEMCO: Opening /shared/ucl/depts/uptrop/uclgcfs/gcgrid/gcdata/ExtData/HEMCO/GMI/v2015-02/gmi.clim.RIPB.geos5.2x25.nc
HEMCO: Opening /shared/ucl/depts/uptrop/uclgcfs/gcgrid/gcdata/ExtData/HEMCO/GMI/v2015-02/gmi.clim.RIPD.geos5.2x25.nc
HEMCO: Opening /shared/ucl/depts/uptrop/uclgcfs/gcgrid/gcdata/ExtData/HEMCO/GMI/v2015-02/gmi.clim.RP.geos5.2x25.nc
HEMCO: Opening /shared/ucl/depts/uptrop/uclgcfs/gcgrid/gcdata/ExtData/HEMCO/NOAA_GMD/v2018-01/monthly.gridded.surface.methane.1979-2020.1x1.nc
HEMCO: Opening /shared/ucl/depts/uptrop/uclgcfs/gcgrid/gcdata/ExtData/HEMCO/CMIP6/v2020-03/2x2.5/CMIP6_GHG_surface_VMR_2014.2x25.nc
HEMCO: Opening /shared/ucl/depts/uptrop/uclgcfs/gcgrid/gcdata/ExtData/HEMCO/SfcFix/v2019-12/WMO_2018/2x2.5/surface_VMRs_WMO2018_2019.2x25.nc
HEMCO: Opening /shared/ucl/depts/uptrop/uclgcfs/gcgrid/gcdata/ExtData/HEMCO/OCEAN_O3_DRYDEP/v2020-02/Oi_prj_predicted_iodide_0.125x0.125_No_Skagerrak_Just_Ensemble.nc
HEMCO: Opening /shared/ucl/depts/uptrop/uclgcfs/gcgrid/gcdata/ExtData/HEMCO/BROMINE/v2015-02/BromoCarb_Season.nc
HEMCO: Opening /shared/ucl/depts/uptrop/uclgcfs/gcgrid/gcdata/ExtData/HEMCO/OFFLINE_DUST/v2021-08/0.5x0.625/2019/08/dust_emissions_05.20190801.nc
HEMCO: Opening /shared/ucl/depts/uptrop/uclgcfs/gcgrid/gcdata/ExtData/HEMCO/OFFLINE_BIOVOC/v2021-12/0.5x0.625/2019/08/biovoc_05.20190801.nc
HEMCO: Opening /shared/ucl/depts/uptrop/uclgcfs/gcgrid/gcdata/ExtData/HEMCO/OFFLINE_SEASALT/v2019-01/0.5x0.625/2019/08/seasalt_05.20190801.nc
HEMCO: Opening /shared/ucl/depts/uptrop/uclgcfs/gcgrid/gcdata/ExtData/HEMCO/OFFLINE_SOILNOX/V2021-12/0.5x0.625/2019/08/soilnox_05.20190801.nc
HEMCO: Opening /shared/ucl/depts/uptrop/uclgcfs/gcgrid/gcdata/ExtData/GEOS_4x5/MERRA2/2019/08/MERRA2.20190801.A1.4x5.nc4
HEMCO: Opening /shared/ucl/depts/uptrop/uclgcfs/gcgrid/gcdata/ExtData/GEOS_4x5/MERRA2/2019/08/MERRA2.20190801.A3cld.4x5.nc4
HEMCO: Opening /shared/ucl/depts/uptrop/uclgcfs/gcgrid/gcdata/ExtData/GEOS_4x5/MERRA2/2019/08/MERRA2.20190801.A3dyn.4x5.nc4
HEMCO: Opening /shared/ucl/depts/uptrop/uclgcfs/gcgrid/gcdata/ExtData/GEOS_4x5/MERRA2/2019/08/MERRA2.20190801.A3mstC.4x5.nc4
HEMCO: Opening /shared/ucl/depts/uptrop/uclgcfs/gcgrid/gcdata/ExtData/GEOS_4x5/MERRA2/2019/08/MERRA2.20190801.A3mstE.4x5.nc4
HEMCO: Opening /shared/ucl/depts/uptrop/uclgcfs/gcgrid/gcdata/ExtData/GEOS_4x5/MERRA2/2019/08/MERRA2.20190801.I3.4x5.nc4
HEMCO: Opening /shared/ucl/depts/uptrop/uclgcfs/gcgrid/gcdata/ExtData/GEOS_4x5/MERRA2/2019/08/MERRA2.20190802.I3.4x5.nc4
HEMCO: Opening /shared/ucl/depts/uptrop/uclgcfs/gcgrid/gcdata/ExtData/HEMCO/Yuan_XLAI/v2021-06/Yuan_proc_MODIS_XLAI.025x025.2019.nc
HEMCO: Opening /shared/ucl/depts/uptrop/uclgcfs/gcgrid/gcdata/ExtData/HEMCO/OFFLINE_LIGHTNING/v2020-03/MERRA2/2019/FLASH_CTH_MERRA2_0.5x0.625_2019_08.nc4
HEMCO: Opening ./Restarts/Spinup/HEMCO_restart.201908010000.nc
HEMCO: Opening ./Restarts/Spinup/GEOSChem.Restart.20190801_0000z.nc4
PHOTOLYSIS (dry-run): Opening /home/ucfacb0/Scratch/CLOUD_J/CJ77_inp.dat
PHOTOLYSIS (dry-run): Opening /home/ucfacb0/Scratch/CLOUD_J/FJX_spec.dat
PHOTOLYSIS (dry-run): Opening /home/ucfacb0/Scratch/CLOUD_J/FJX_scat-aer.dat
PHOTOLYSIS (dry-run): Opening /home/ucfacb0/Scratch/CLOUD_J/FJX_scat-cld.dat
PHOTOLYSIS (dry-run): Opening /home/ucfacb0/Scratch/CLOUD_J/FJX_scat-ssa.dat
PHOTOLYSIS (dry-run): Opening /home/ucfacb0/Scratch/CLOUD_J/FJX_scat-UMa.dat
PHOTOLYSIS (dry-run): Opening /home/ucfacb0/Scratch/CLOUD_J/FJX_scat-geo.dat
PHOTOLYSIS (dry-run): Opening /home/ucfacb0/Scratch/CLOUD_J/atmos_std.dat
PHOTOLYSIS (dry-run): Opening /home/ucfacb0/Scratch/CLOUD_J/atmos_h2och4.dat
PHOTOLYSIS (dry-run): Opening /home/ucfacb0/Scratch/CLOUD_J/atmos_geomip.dat
PHOTOLYSIS (dry-run): Opening /home/ucfacb0/Scratch/CLOUD_J/FJX_j2j.dat
PHOTOLYSIS (RD_AOD): Opening /shared/ucl/depts/uptrop/uclgcfs/gcgrid/gcdata/ExtData/CHEM_INPUTS/FAST_JX/v2021-10/so4.dat
PHOTOLYSIS (RD_AOD): Opening /shared/ucl/depts/uptrop/uclgcfs/gcgrid/gcdata/ExtData/CHEM_INPUTS/FAST_JX/v2021-10/soot.dat
PHOTOLYSIS (RD_AOD): Opening /shared/ucl/depts/uptrop/uclgcfs/gcgrid/gcdata/ExtData/CHEM_INPUTS/FAST_JX/v2021-10/org.dat
PHOTOLYSIS (RD_AOD): Opening /shared/ucl/depts/uptrop/uclgcfs/gcgrid/gcdata/ExtData/CHEM_INPUTS/FAST_JX/v2021-10/ssa.dat
PHOTOLYSIS (RD_AOD): Opening /shared/ucl/depts/uptrop/uclgcfs/gcgrid/gcdata/ExtData/CHEM_INPUTS/FAST_JX/v2021-10/ssc.dat
PHOTOLYSIS (RD_AOD): Opening /shared/ucl/depts/uptrop/uclgcfs/gcgrid/gcdata/ExtData/CHEM_INPUTS/FAST_JX/v2021-10/h2so4.dat
PHOTOLYSIS (RD_AOD): Opening /shared/ucl/depts/uptrop/uclgcfs/gcgrid/gcdata/ExtData/CHEM_INPUTS/FAST_JX/v2021-10/h2so4.dat
PHOTOLYSIS (RD_AOD): Opening /shared/ucl/depts/uptrop/uclgcfs/gcgrid/gcdata/ExtData/CHEM_INPUTS/FAST_JX/v2021-10/dust.dat
PHOTOLYSIS (RD_PROF_NC): Opening /shared/ucl/depts/uptrop/uclgcfs/gcgrid/gcdata/ExtData/CHEM_INPUTS/FastJ_201204/fastj.jv_atms_dat.nc
UCX (SFCMR_READ): Opening /shared/ucl/depts/uptrop/uclgcfs/gcgrid/gcdata/ExtData/CHEM_INPUTS/UCX_201403/NoonTime/Grid4x5/InitCFC_O_01.dat
UCX (SFCMR_READ): Opening /shared/ucl/depts/uptrop/uclgcfs/gcgrid/gcdata/ExtData/CHEM_INPUTS/UCX_201403/NoonTime/Grid4x5/InitCFC_O1D_01.dat
UCX (SFCMR_READ): Opening /shared/ucl/depts/uptrop/uclgcfs/gcgrid/gcdata/ExtData/CHEM_INPUTS/UCX_201403/NoonTime/Grid4x5/InitCFC_JNO_01.dat
UCX (SFCMR_READ): Opening /shared/ucl/depts/uptrop/uclgcfs/gcgrid/gcdata/ExtData/CHEM_INPUTS/UCX_201403/NoonTime/Grid4x5/InitCFC_JNO2_01.dat
UCX (SFCMR_READ): Opening /shared/ucl/depts/uptrop/uclgcfs/gcgrid/gcdata/ExtData/CHEM_INPUTS/UCX_201403/NoonTime/Grid4x5/InitCFC_JNO3_01.dat
UCX (SFCMR_READ): Opening /shared/ucl/depts/uptrop/uclgcfs/gcgrid/gcdata/ExtData/CHEM_INPUTS/UCX_201403/NoonTime/Grid4x5/InitCFC_JN2O_01.dat
UCX (SFCMR_READ): Opening /shared/ucl/depts/uptrop/uclgcfs/gcgrid/gcdata/ExtData/CHEM_INPUTS/UCX_201403/NoonTime/Grid4x5/InitCFC_O_02.dat
UCX (SFCMR_READ): Opening /shared/ucl/depts/uptrop/uclgcfs/gcgrid/gcdata/ExtData/CHEM_INPUTS/UCX_201403/NoonTime/Grid4x5/InitCFC_O1D_02.dat
UCX (SFCMR_READ): Opening /shared/ucl/depts/uptrop/uclgcfs/gcgrid/gcdata/ExtData/CHEM_INPUTS/UCX_201403/NoonTime/Grid4x5/InitCFC_JNO_02.dat
UCX (SFCMR_READ): Opening /shared/ucl/depts/uptrop/uclgcfs/gcgrid/gcdata/ExtData/CHEM_INPUTS/UCX_201403/NoonTime/Grid4x5/InitCFC_JNO2_02.dat
UCX (SFCMR_READ): Opening /shared/ucl/depts/uptrop/uclgcfs/gcgrid/gcdata/ExtData/CHEM_INPUTS/UCX_201403/NoonTime/Grid4x5/InitCFC_JNO3_02.dat
UCX (SFCMR_READ): Opening /shared/ucl/depts/uptrop/uclgcfs/gcgrid/gcdata/ExtData/CHEM_INPUTS/UCX_201403/NoonTime/Grid4x5/InitCFC_JN2O_02.dat
UCX (SFCMR_READ): Opening /shared/ucl/depts/uptrop/uclgcfs/gcgrid/gcdata/ExtData/CHEM_INPUTS/UCX_201403/NoonTime/Grid4x5/InitCFC_O_03.dat
UCX (SFCMR_READ): Opening /shared/ucl/depts/uptrop/uclgcfs/gcgrid/gcdata/ExtData/CHEM_INPUTS/UCX_201403/NoonTime/Grid4x5/InitCFC_O1D_03.dat
UCX (SFCMR_READ): Opening /shared/ucl/depts/uptrop/uclgcfs/gcgrid/gcdata/ExtData/CHEM_INPUTS/UCX_201403/NoonTime/Grid4x5/InitCFC_JNO_03.dat
UCX (SFCMR_READ): Opening /shared/ucl/depts/uptrop/uclgcfs/gcgrid/gcdata/ExtData/CHEM_INPUTS/UCX_201403/NoonTime/Grid4x5/InitCFC_JNO2_03.dat
UCX (SFCMR_READ): Opening /shared/ucl/depts/uptrop/uclgcfs/gcgrid/gcdata/ExtData/CHEM_INPUTS/UCX_201403/NoonTime/Grid4x5/InitCFC_JNO3_03.dat
UCX (SFCMR_READ): Opening /shared/ucl/depts/uptrop/uclgcfs/gcgrid/gcdata/ExtData/CHEM_INPUTS/UCX_201403/NoonTime/Grid4x5/InitCFC_JN2O_03.dat
UCX (SFCMR_READ): Opening /shared/ucl/depts/uptrop/uclgcfs/gcgrid/gcdata/ExtData/CHEM_INPUTS/UCX_201403/NoonTime/Grid4x5/InitCFC_O_04.dat
UCX (SFCMR_READ): Opening /shared/ucl/depts/uptrop/uclgcfs/gcgrid/gcdata/ExtData/CHEM_INPUTS/UCX_201403/NoonTime/Grid4x5/InitCFC_O1D_04.dat
UCX (SFCMR_READ): Opening /shared/ucl/depts/uptrop/uclgcfs/gcgrid/gcdata/ExtData/CHEM_INPUTS/UCX_201403/NoonTime/Grid4x5/InitCFC_JNO_04.dat
UCX (SFCMR_READ): Opening /shared/ucl/depts/uptrop/uclgcfs/gcgrid/gcdata/ExtData/CHEM_INPUTS/UCX_201403/NoonTime/Grid4x5/InitCFC_JNO2_04.dat
UCX (SFCMR_READ): Opening /shared/ucl/depts/uptrop/uclgcfs/gcgrid/gcdata/ExtData/CHEM_INPUTS/UCX_201403/NoonTime/Grid4x5/InitCFC_JNO3_04.dat
UCX (SFCMR_READ): Opening /shared/ucl/depts/uptrop/uclgcfs/gcgrid/gcdata/ExtData/CHEM_INPUTS/UCX_201403/NoonTime/Grid4x5/InitCFC_JN2O_04.dat
UCX (SFCMR_READ): Opening /shared/ucl/depts/uptrop/uclgcfs/gcgrid/gcdata/ExtData/CHEM_INPUTS/UCX_201403/NoonTime/Grid4x5/InitCFC_O_05.dat
UCX (SFCMR_READ): Opening /shared/ucl/depts/uptrop/uclgcfs/gcgrid/gcdata/ExtData/CHEM_INPUTS/UCX_201403/NoonTime/Grid4x5/InitCFC_O1D_05.dat
UCX (SFCMR_READ): Opening /shared/ucl/depts/uptrop/uclgcfs/gcgrid/gcdata/ExtData/CHEM_INPUTS/UCX_201403/NoonTime/Grid4x5/InitCFC_JNO_05.dat
UCX (SFCMR_READ): Opening /shared/ucl/depts/uptrop/uclgcfs/gcgrid/gcdata/ExtData/CHEM_INPUTS/UCX_201403/NoonTime/Grid4x5/InitCFC_JNO2_05.dat
UCX (SFCMR_READ): Opening /shared/ucl/depts/uptrop/uclgcfs/gcgrid/gcdata/ExtData/CHEM_INPUTS/UCX_201403/NoonTime/Grid4x5/InitCFC_JNO3_05.dat
UCX (SFCMR_READ): Opening /shared/ucl/depts/uptrop/uclgcfs/gcgrid/gcdata/ExtData/CHEM_INPUTS/UCX_201403/NoonTime/Grid4x5/InitCFC_JN2O_05.dat
UCX (SFCMR_READ): Opening /shared/ucl/depts/uptrop/uclgcfs/gcgrid/gcdata/ExtData/CHEM_INPUTS/UCX_201403/NoonTime/Grid4x5/InitCFC_O_06.dat
UCX (SFCMR_READ): Opening /shared/ucl/depts/uptrop/uclgcfs/gcgrid/gcdata/ExtData/CHEM_INPUTS/UCX_201403/NoonTime/Grid4x5/InitCFC_O1D_06.dat
UCX (SFCMR_READ): Opening /shared/ucl/depts/uptrop/uclgcfs/gcgrid/gcdata/ExtData/CHEM_INPUTS/UCX_201403/NoonTime/Grid4x5/InitCFC_JNO_06.dat
UCX (SFCMR_READ): Opening /shared/ucl/depts/uptrop/uclgcfs/gcgrid/gcdata/ExtData/CHEM_INPUTS/UCX_201403/NoonTime/Grid4x5/InitCFC_JNO2_06.dat
UCX (SFCMR_READ): Opening /shared/ucl/depts/uptrop/uclgcfs/gcgrid/gcdata/ExtData/CHEM_INPUTS/UCX_201403/NoonTime/Grid4x5/InitCFC_JNO3_06.dat
UCX (SFCMR_READ): Opening /shared/ucl/depts/uptrop/uclgcfs/gcgrid/gcdata/ExtData/CHEM_INPUTS/UCX_201403/NoonTime/Grid4x5/InitCFC_JN2O_06.dat
UCX (SFCMR_READ): Opening /shared/ucl/depts/uptrop/uclgcfs/gcgrid/gcdata/ExtData/CHEM_INPUTS/UCX_201403/NoonTime/Grid4x5/InitCFC_O_07.dat
UCX (SFCMR_READ): Opening /shared/ucl/depts/uptrop/uclgcfs/gcgrid/gcdata/ExtData/CHEM_INPUTS/UCX_201403/NoonTime/Grid4x5/InitCFC_O1D_07.dat
UCX (SFCMR_READ): Opening /shared/ucl/depts/uptrop/uclgcfs/gcgrid/gcdata/ExtData/CHEM_INPUTS/UCX_201403/NoonTime/Grid4x5/InitCFC_JNO_07.dat
UCX (SFCMR_READ): Opening /shared/ucl/depts/uptrop/uclgcfs/gcgrid/gcdata/ExtData/CHEM_INPUTS/UCX_201403/NoonTime/Grid4x5/InitCFC_JNO2_07.dat
UCX (SFCMR_READ): Opening /shared/ucl/depts/uptrop/uclgcfs/gcgrid/gcdata/ExtData/CHEM_INPUTS/UCX_201403/NoonTime/Grid4x5/InitCFC_JNO3_07.dat
UCX (SFCMR_READ): Opening /shared/ucl/depts/uptrop/uclgcfs/gcgrid/gcdata/ExtData/CHEM_INPUTS/UCX_201403/NoonTime/Grid4x5/InitCFC_JN2O_07.dat
UCX (SFCMR_READ): Opening /shared/ucl/depts/uptrop/uclgcfs/gcgrid/gcdata/ExtData/CHEM_INPUTS/UCX_201403/NoonTime/Grid4x5/InitCFC_O_08.dat
UCX (SFCMR_READ): Opening /shared/ucl/depts/uptrop/uclgcfs/gcgrid/gcdata/ExtData/CHEM_INPUTS/UCX_201403/NoonTime/Grid4x5/InitCFC_O1D_08.dat
UCX (SFCMR_READ): Opening /shared/ucl/depts/uptrop/uclgcfs/gcgrid/gcdata/ExtData/CHEM_INPUTS/UCX_201403/NoonTime/Grid4x5/InitCFC_JNO_08.dat
UCX (SFCMR_READ): Opening /shared/ucl/depts/uptrop/uclgcfs/gcgrid/gcdata/ExtData/CHEM_INPUTS/UCX_201403/NoonTime/Grid4x5/InitCFC_JNO2_08.dat
UCX (SFCMR_READ): Opening /shared/ucl/depts/uptrop/uclgcfs/gcgrid/gcdata/ExtData/CHEM_INPUTS/UCX_201403/NoonTime/Grid4x5/InitCFC_JNO3_08.dat
UCX (SFCMR_READ): Opening /shared/ucl/depts/uptrop/uclgcfs/gcgrid/gcdata/ExtData/CHEM_INPUTS/UCX_201403/NoonTime/Grid4x5/InitCFC_JN2O_08.dat
UCX (SFCMR_READ): Opening /shared/ucl/depts/uptrop/uclgcfs/gcgrid/gcdata/ExtData/CHEM_INPUTS/UCX_201403/NoonTime/Grid4x5/InitCFC_O_09.dat
UCX (SFCMR_READ): Opening /shared/ucl/depts/uptrop/uclgcfs/gcgrid/gcdata/ExtData/CHEM_INPUTS/UCX_201403/NoonTime/Grid4x5/InitCFC_O1D_09.dat
UCX (SFCMR_READ): Opening /shared/ucl/depts/uptrop/uclgcfs/gcgrid/gcdata/ExtData/CHEM_INPUTS/UCX_201403/NoonTime/Grid4x5/InitCFC_JNO_09.dat
UCX (SFCMR_READ): Opening /shared/ucl/depts/uptrop/uclgcfs/gcgrid/gcdata/ExtData/CHEM_INPUTS/UCX_201403/NoonTime/Grid4x5/InitCFC_JNO2_09.dat
UCX (SFCMR_READ): Opening /shared/ucl/depts/uptrop/uclgcfs/gcgrid/gcdata/ExtData/CHEM_INPUTS/UCX_201403/NoonTime/Grid4x5/InitCFC_JNO3_09.dat
UCX (SFCMR_READ): Opening /shared/ucl/depts/uptrop/uclgcfs/gcgrid/gcdata/ExtData/CHEM_INPUTS/UCX_201403/NoonTime/Grid4x5/InitCFC_JN2O_09.dat
UCX (SFCMR_READ): Opening /shared/ucl/depts/uptrop/uclgcfs/gcgrid/gcdata/ExtData/CHEM_INPUTS/UCX_201403/NoonTime/Grid4x5/InitCFC_O_10.dat
UCX (SFCMR_READ): Opening /shared/ucl/depts/uptrop/uclgcfs/gcgrid/gcdata/ExtData/CHEM_INPUTS/UCX_201403/NoonTime/Grid4x5/InitCFC_O1D_10.dat
UCX (SFCMR_READ): Opening /shared/ucl/depts/uptrop/uclgcfs/gcgrid/gcdata/ExtData/CHEM_INPUTS/UCX_201403/NoonTime/Grid4x5/InitCFC_JNO_10.dat
UCX (SFCMR_READ): Opening /shared/ucl/depts/uptrop/uclgcfs/gcgrid/gcdata/ExtData/CHEM_INPUTS/UCX_201403/NoonTime/Grid4x5/InitCFC_JNO2_10.dat
UCX (SFCMR_READ): Opening /shared/ucl/depts/uptrop/uclgcfs/gcgrid/gcdata/ExtData/CHEM_INPUTS/UCX_201403/NoonTime/Grid4x5/InitCFC_JNO3_10.dat
UCX (SFCMR_READ): Opening /shared/ucl/depts/uptrop/uclgcfs/gcgrid/gcdata/ExtData/CHEM_INPUTS/UCX_201403/NoonTime/Grid4x5/InitCFC_JN2O_10.dat
UCX (SFCMR_READ): Opening /shared/ucl/depts/uptrop/uclgcfs/gcgrid/gcdata/ExtData/CHEM_INPUTS/UCX_201403/NoonTime/Grid4x5/InitCFC_O_11.dat
UCX (SFCMR_READ): Opening /shared/ucl/depts/uptrop/uclgcfs/gcgrid/gcdata/ExtData/CHEM_INPUTS/UCX_201403/NoonTime/Grid4x5/InitCFC_O1D_11.dat
UCX (SFCMR_READ): Opening /shared/ucl/depts/uptrop/uclgcfs/gcgrid/gcdata/ExtData/CHEM_INPUTS/UCX_201403/NoonTime/Grid4x5/InitCFC_JNO_11.dat
UCX (SFCMR_READ): Opening /shared/ucl/depts/uptrop/uclgcfs/gcgrid/gcdata/ExtData/CHEM_INPUTS/UCX_201403/NoonTime/Grid4x5/InitCFC_JNO2_11.dat
UCX (SFCMR_READ): Opening /shared/ucl/depts/uptrop/uclgcfs/gcgrid/gcdata/ExtData/CHEM_INPUTS/UCX_201403/NoonTime/Grid4x5/InitCFC_JNO3_11.dat
UCX (SFCMR_READ): Opening /shared/ucl/depts/uptrop/uclgcfs/gcgrid/gcdata/ExtData/CHEM_INPUTS/UCX_201403/NoonTime/Grid4x5/InitCFC_JN2O_11.dat
UCX (SFCMR_READ): Opening /shared/ucl/depts/uptrop/uclgcfs/gcgrid/gcdata/ExtData/CHEM_INPUTS/UCX_201403/NoonTime/Grid4x5/InitCFC_O_12.dat
UCX (SFCMR_READ): Opening /shared/ucl/depts/uptrop/uclgcfs/gcgrid/gcdata/ExtData/CHEM_INPUTS/UCX_201403/NoonTime/Grid4x5/InitCFC_O1D_12.dat
UCX (SFCMR_READ): Opening /shared/ucl/depts/uptrop/uclgcfs/gcgrid/gcdata/ExtData/CHEM_INPUTS/UCX_201403/NoonTime/Grid4x5/InitCFC_JNO_12.dat
UCX (SFCMR_READ): Opening /shared/ucl/depts/uptrop/uclgcfs/gcgrid/gcdata/ExtData/CHEM_INPUTS/UCX_201403/NoonTime/Grid4x5/InitCFC_JNO2_12.dat
UCX (SFCMR_READ): Opening /shared/ucl/depts/uptrop/uclgcfs/gcgrid/gcdata/ExtData/CHEM_INPUTS/UCX_201403/NoonTime/Grid4x5/InitCFC_JNO3_12.dat
UCX (SFCMR_READ): Opening /shared/ucl/depts/uptrop/uclgcfs/gcgrid/gcdata/ExtData/CHEM_INPUTS/UCX_201403/NoonTime/Grid4x5/InitCFC_JN2O_12.dat
 HEMCO already called for this timestep. Returning.
HEMCO (VOLCANO): Opening /shared/ucl/depts/uptrop/uclgcfs/gcgrid/gcdata/ExtData/HEMCO/VOLCANO/v2021-09/2019/08/so2_volcanic_emissions_Carns.20190801.rc
HEMCO (VOLCANO): Opening /shared/ucl/depts/uptrop/uclgcfs/gcgrid/gcdata/ExtData/HEMCO/VOLCANO/v2021-09/2019/08/so2_volcanic_emissions_Carns.20190801.rc
HEMCO (VOLCANO): Opening /shared/ucl/depts/uptrop/uclgcfs/gcgrid/gcdata/ExtData/HEMCO/VOLCANO/v2021-09/2019/08/so2_volcanic_emissions_Carns.20190801.rc
HEMCO (VOLCANO): Opening /shared/ucl/depts/uptrop/uclgcfs/gcgrid/gcdata/ExtData/HEMCO/VOLCANO/v2021-09/2019/08/so2_volcanic_emissions_Carns.20190801.rc
HEMCO (VOLCANO): Opening /shared/ucl/depts/uptrop/uclgcfs/gcgrid/gcdata/ExtData/HEMCO/VOLCANO/v2021-09/2019/08/so2_volcanic_emissions_Carns.20190801.rc
HEMCO (VOLCANO): Opening /shared/ucl/depts/uptrop/uclgcfs/gcgrid/gcdata/ExtData/HEMCO/VOLCANO/v2021-09/2019/08/so2_volcanic_emissions_Carns.20190801.rc
HEMCO (VOLCANO): Opening /shared/ucl/depts/uptrop/uclgcfs/gcgrid/gcdata/ExtData/HEMCO/VOLCANO/v2021-09/2019/08/so2_volcanic_emissions_Carns.20190801.rc
HEMCO (VOLCANO): Opening /shared/ucl/depts/uptrop/uclgcfs/gcgrid/gcdata/ExtData/HEMCO/VOLCANO/v2021-09/2019/08/so2_volcanic_emissions_Carns.20190801.rc
HEMCO (VOLCANO): Opening /shared/ucl/depts/uptrop/uclgcfs/gcgrid/gcdata/ExtData/HEMCO/VOLCANO/v2021-09/2019/08/so2_volcanic_emissions_Carns.20190801.rc
HEMCO: Opening /shared/ucl/depts/uptrop/uclgcfs/gcgrid/gcdata/ExtData/HEMCO/OFFLINE_LIGHTNING/v2020-03/MERRA2/2019/FLASH_CTH_MERRA2_0.5x0.625_2019_08.nc4
HEMCO (VOLCANO): Opening /shared/ucl/depts/uptrop/uclgcfs/gcgrid/gcdata/ExtData/HEMCO/VOLCANO/v2021-09/2019/08/so2_volcanic_emissions_Carns.20190801.rc
HEMCO (VOLCANO): Opening /shared/ucl/depts/uptrop/uclgcfs/gcgrid/gcdata/ExtData/HEMCO/VOLCANO/v2021-09/2019/08/so2_volcanic_emissions_Carns.20190801.rc
HEMCO (VOLCANO): Opening /shared/ucl/depts/uptrop/uclgcfs/gcgrid/gcdata/ExtData/HEMCO/VOLCANO/v2021-09/2019/08/so2_volcanic_emissions_Carns.20190801.rc
HEMCO (VOLCANO): Opening /shared/ucl/depts/uptrop/uclgcfs/gcgrid/gcdata/ExtData/HEMCO/VOLCANO/v2021-09/2019/08/so2_volcanic_emissions_Carns.20190801.rc
HEMCO (VOLCANO): Opening /shared/ucl/depts/uptrop/uclgcfs/gcgrid/gcdata/ExtData/HEMCO/VOLCANO/v2021-09/2019/08/so2_volcanic_emissions_Carns.20190801.rc
HEMCO (VOLCANO): Opening /shared/ucl/depts/uptrop/uclgcfs/gcgrid/gcdata/ExtData/HEMCO/VOLCANO/v2021-09/2019/08/so2_volcanic_emissions_Carns.20190801.rc
HEMCO (VOLCANO): Opening /shared/ucl/depts/uptrop/uclgcfs/gcgrid/gcdata/ExtData/HEMCO/VOLCANO/v2021-09/2019/08/so2_volcanic_emissions_Carns.20190801.rc
HEMCO (VOLCANO): Opening /shared/ucl/depts/uptrop/uclgcfs/gcgrid/gcdata/ExtData/HEMCO/VOLCANO/v2021-09/2019/08/so2_volcanic_emissions_Carns.20190801.rc
HEMCO (VOLCANO): Opening /shared/ucl/depts/uptrop/uclgcfs/gcgrid/gcdata/ExtData/HEMCO/VOLCANO/v2021-09/2019/08/so2_volcanic_emissions_Carns.20190801.rc
HEMCO (VOLCANO): Opening /shared/ucl/depts/uptrop/uclgcfs/gcgrid/gcdata/ExtData/HEMCO/VOLCANO/v2021-09/2019/08/so2_volcanic_emissions_Carns.20190801.rc
HEMCO (VOLCANO): Opening /shared/ucl/depts/uptrop/uclgcfs/gcgrid/gcdata/ExtData/HEMCO/VOLCANO/v2021-09/2019/08/so2_volcanic_emissions_Carns.20190801.rc
HEMCO (VOLCANO): Opening /shared/ucl/depts/uptrop/uclgcfs/gcgrid/gcdata/ExtData/HEMCO/VOLCANO/v2021-09/2019/08/so2_volcanic_emissions_Carns.20190801.rc
HEMCO (VOLCANO): Opening /shared/ucl/depts/uptrop/uclgcfs/gcgrid/gcdata/ExtData/HEMCO/VOLCANO/v2021-09/2019/08/so2_volcanic_emissions_Carns.20190801.rc
HEMCO (VOLCANO): Opening /shared/ucl/depts/uptrop/uclgcfs/gcgrid/gcdata/ExtData/HEMCO/VOLCANO/v2021-09/2019/08/so2_volcanic_emissions_Carns.20190801.rc
HEMCO (VOLCANO): Opening /shared/ucl/depts/uptrop/uclgcfs/gcgrid/gcdata/ExtData/HEMCO/VOLCANO/v2021-09/2019/08/so2_volcanic_emissions_Carns.20190801.rc
HEMCO (VOLCANO): Opening /shared/ucl/depts/uptrop/uclgcfs/gcgrid/gcdata/ExtData/HEMCO/VOLCANO/v2021-09/2019/08/so2_volcanic_emissions_Carns.20190801.rc
HEMCO (VOLCANO): Opening /shared/ucl/depts/uptrop/uclgcfs/gcgrid/gcdata/ExtData/HEMCO/VOLCANO/v2021-09/2019/08/so2_volcanic_emissions_Carns.20190801.rc
HEMCO (VOLCANO): Opening /shared/ucl/depts/uptrop/uclgcfs/gcgrid/gcdata/ExtData/HEMCO/VOLCANO/v2021-09/2019/08/so2_volcanic_emissions_Carns.20190801.rc
HEMCO (VOLCANO): Opening /shared/ucl/depts/uptrop/uclgcfs/gcgrid/gcdata/ExtData/HEMCO/VOLCANO/v2021-09/2019/08/so2_volcanic_emissions_Carns.20190801.rc
HEMCO (VOLCANO): Opening /shared/ucl/depts/uptrop/uclgcfs/gcgrid/gcdata/ExtData/HEMCO/VOLCANO/v2021-09/2019/08/so2_volcanic_emissions_Carns.20190801.rc
HEMCO (VOLCANO): Opening /shared/ucl/depts/uptrop/uclgcfs/gcgrid/gcdata/ExtData/HEMCO/VOLCANO/v2021-09/2019/08/so2_volcanic_emissions_Carns.20190801.rc
HEMCO (VOLCANO): Opening /shared/ucl/depts/uptrop/uclgcfs/gcgrid/gcdata/ExtData/HEMCO/VOLCANO/v2021-09/2019/08/so2_volcanic_emissions_Carns.20190801.rc
HEMCO (VOLCANO): Opening /shared/ucl/depts/uptrop/uclgcfs/gcgrid/gcdata/ExtData/HEMCO/VOLCANO/v2021-09/2019/08/so2_volcanic_emissions_Carns.20190801.rc
HEMCO (VOLCANO): Opening /shared/ucl/depts/uptrop/uclgcfs/gcgrid/gcdata/ExtData/HEMCO/VOLCANO/v2021-09/2019/08/so2_volcanic_emissions_Carns.20190801.rc
HEMCO (VOLCANO): Opening /shared/ucl/depts/uptrop/uclgcfs/gcgrid/gcdata/ExtData/HEMCO/VOLCANO/v2021-09/2019/08/so2_volcanic_emissions_Carns.20190801.rc
HEMCO (VOLCANO): Opening /shared/ucl/depts/uptrop/uclgcfs/gcgrid/gcdata/ExtData/HEMCO/VOLCANO/v2021-09/2019/08/so2_volcanic_emissions_Carns.20190801.rc
HEMCO (VOLCANO): Opening /shared/ucl/depts/uptrop/uclgcfs/gcgrid/gcdata/ExtData/HEMCO/VOLCANO/v2021-09/2019/08/so2_volcanic_emissions_Carns.20190801.rc
HEMCO (VOLCANO): Opening /shared/ucl/depts/uptrop/uclgcfs/gcgrid/gcdata/ExtData/HEMCO/VOLCANO/v2021-09/2019/08/so2_volcanic_emissions_Carns.20190801.rc
HEMCO (VOLCANO): Opening /shared/ucl/depts/uptrop/uclgcfs/gcgrid/gcdata/ExtData/HEMCO/VOLCANO/v2021-09/2019/08/so2_volcanic_emissions_Carns.20190801.rc
HEMCO (VOLCANO): Opening /shared/ucl/depts/uptrop/uclgcfs/gcgrid/gcdata/ExtData/HEMCO/VOLCANO/v2021-09/2019/08/so2_volcanic_emissions_Carns.20190801.rc
HEMCO (VOLCANO): Opening /shared/ucl/depts/uptrop/uclgcfs/gcgrid/gcdata/ExtData/HEMCO/VOLCANO/v2021-09/2019/08/so2_volcanic_emissions_Carns.20190801.rc
HEMCO (VOLCANO): Opening /shared/ucl/depts/uptrop/uclgcfs/gcgrid/gcdata/ExtData/HEMCO/VOLCANO/v2021-09/2019/08/so2_volcanic_emissions_Carns.20190801.rc
HEMCO (VOLCANO): Opening /shared/ucl/depts/uptrop/uclgcfs/gcgrid/gcdata/ExtData/HEMCO/VOLCANO/v2021-09/2019/08/so2_volcanic_emissions_Carns.20190801.rc
HEMCO (VOLCANO): Opening /shared/ucl/depts/uptrop/uclgcfs/gcgrid/gcdata/ExtData/HEMCO/VOLCANO/v2021-09/2019/08/so2_volcanic_emissions_Carns.20190801.rc
HEMCO (VOLCANO): Opening /shared/ucl/depts/uptrop/uclgcfs/gcgrid/gcdata/ExtData/HEMCO/VOLCANO/v2021-09/2019/08/so2_volcanic_emissions_Carns.20190801.rc
HEMCO (VOLCANO): Opening /shared/ucl/depts/uptrop/uclgcfs/gcgrid/gcdata/ExtData/HEMCO/VOLCANO/v2021-09/2019/08/so2_volcanic_emissions_Carns.20190801.rc
HEMCO (VOLCANO): Opening /shared/ucl/depts/uptrop/uclgcfs/gcgrid/gcdata/ExtData/HEMCO/VOLCANO/v2021-09/2019/08/so2_volcanic_emissions_Carns.20190801.rc
HEMCO (VOLCANO): Opening /shared/ucl/depts/uptrop/uclgcfs/gcgrid/gcdata/ExtData/HEMCO/VOLCANO/v2021-09/2019/08/so2_volcanic_emissions_Carns.20190801.rc
HEMCO (VOLCANO): Opening /shared/ucl/depts/uptrop/uclgcfs/gcgrid/gcdata/ExtData/HEMCO/VOLCANO/v2021-09/2019/08/so2_volcanic_emissions_Carns.20190801.rc
HEMCO (VOLCANO): Opening /shared/ucl/depts/uptrop/uclgcfs/gcgrid/gcdata/ExtData/HEMCO/VOLCANO/v2021-09/2019/08/so2_volcanic_emissions_Carns.20190801.rc
HEMCO (VOLCANO): Opening /shared/ucl/depts/uptrop/uclgcfs/gcgrid/gcdata/ExtData/HEMCO/VOLCANO/v2021-09/2019/08/so2_volcanic_emissions_Carns.20190801.rc
HEMCO (VOLCANO): Opening /shared/ucl/depts/uptrop/uclgcfs/gcgrid/gcdata/ExtData/HEMCO/VOLCANO/v2021-09/2019/08/so2_volcanic_emissions_Carns.20190801.rc
HEMCO (VOLCANO): Opening /shared/ucl/depts/uptrop/uclgcfs/gcgrid/gcdata/ExtData/HEMCO/VOLCANO/v2021-09/2019/08/so2_volcanic_emissions_Carns.20190801.rc
HEMCO (VOLCANO): Opening /shared/ucl/depts/uptrop/uclgcfs/gcgrid/gcdata/ExtData/HEMCO/VOLCANO/v2021-09/2019/08/so2_volcanic_emissions_Carns.20190801.rc
HEMCO (VOLCANO): Opening /shared/ucl/depts/uptrop/uclgcfs/gcgrid/gcdata/ExtData/HEMCO/VOLCANO/v2021-09/2019/08/so2_volcanic_emissions_Carns.20190801.rc
HEMCO (VOLCANO): Opening /shared/ucl/depts/uptrop/uclgcfs/gcgrid/gcdata/ExtData/HEMCO/VOLCANO/v2021-09/2019/08/so2_volcanic_emissions_Carns.20190801.rc
HEMCO (VOLCANO): Opening /shared/ucl/depts/uptrop/uclgcfs/gcgrid/gcdata/ExtData/HEMCO/VOLCANO/v2021-09/2019/08/so2_volcanic_emissions_Carns.20190801.rc
HEMCO (VOLCANO): Opening /shared/ucl/depts/uptrop/uclgcfs/gcgrid/gcdata/ExtData/HEMCO/VOLCANO/v2021-09/2019/08/so2_volcanic_emissions_Carns.20190801.rc
HEMCO (VOLCANO): Opening /shared/ucl/depts/uptrop/uclgcfs/gcgrid/gcdata/ExtData/HEMCO/VOLCANO/v2021-09/2019/08/so2_volcanic_emissions_Carns.20190801.rc
HEMCO (VOLCANO): Opening /shared/ucl/depts/uptrop/uclgcfs/gcgrid/gcdata/ExtData/HEMCO/VOLCANO/v2021-09/2019/08/so2_volcanic_emissions_Carns.20190801.rc
HEMCO (VOLCANO): Opening /shared/ucl/depts/uptrop/uclgcfs/gcgrid/gcdata/ExtData/HEMCO/VOLCANO/v2021-09/2019/08/so2_volcanic_emissions_Carns.20190801.rc
HEMCO (VOLCANO): Opening /shared/ucl/depts/uptrop/uclgcfs/gcgrid/gcdata/ExtData/HEMCO/VOLCANO/v2021-09/2019/08/so2_volcanic_emissions_Carns.20190801.rc
HEMCO (VOLCANO): Opening /shared/ucl/depts/uptrop/uclgcfs/gcgrid/gcdata/ExtData/HEMCO/VOLCANO/v2021-09/2019/08/so2_volcanic_emissions_Carns.20190801.rc
HEMCO (VOLCANO): Opening /shared/ucl/depts/uptrop/uclgcfs/gcgrid/gcdata/ExtData/HEMCO/VOLCANO/v2021-09/2019/08/so2_volcanic_emissions_Carns.20190801.rc
HEMCO (VOLCANO): Opening /shared/ucl/depts/uptrop/uclgcfs/gcgrid/gcdata/ExtData/HEMCO/VOLCANO/v2021-09/2019/08/so2_volcanic_emissions_Carns.20190801.rc
HEMCO (VOLCANO): Opening /shared/ucl/depts/uptrop/uclgcfs/gcgrid/gcdata/ExtData/HEMCO/VOLCANO/v2021-09/2019/08/so2_volcanic_emissions_Carns.20190801.rc
HEMCO (VOLCANO): Opening /shared/ucl/depts/uptrop/uclgcfs/gcgrid/gcdata/ExtData/HEMCO/VOLCANO/v2021-09/2019/08/so2_volcanic_emissions_Carns.20190801.rc
HEMCO (VOLCANO): Opening /shared/ucl/depts/uptrop/uclgcfs/gcgrid/gcdata/ExtData/HEMCO/VOLCANO/v2021-09/2019/08/so2_volcanic_emissions_Carns.20190801.rc
HEMCO (VOLCANO): Opening /shared/ucl/depts/uptrop/uclgcfs/gcgrid/gcdata/ExtData/HEMCO/VOLCANO/v2021-09/2019/08/so2_volcanic_emissions_Carns.20190801.rc
HEMCO (VOLCANO): Opening /shared/ucl/depts/uptrop/uclgcfs/gcgrid/gcdata/ExtData/HEMCO/VOLCANO/v2021-09/2019/08/so2_volcanic_emissions_Carns.20190801.rc
HEMCO (VOLCANO): Opening /shared/ucl/depts/uptrop/uclgcfs/gcgrid/gcdata/ExtData/HEMCO/VOLCANO/v2021-09/2019/08/so2_volcanic_emissions_Carns.20190801.rc
HEMCO (VOLCANO): Opening /shared/ucl/depts/uptrop/uclgcfs/gcgrid/gcdata/ExtData/HEMCO/VOLCANO/v2021-09/2019/08/so2_volcanic_emissions_Carns.20190801.rc
HEMCO (VOLCANO): Opening /shared/ucl/depts/uptrop/uclgcfs/gcgrid/gcdata/ExtData/HEMCO/VOLCANO/v2021-09/2019/08/so2_volcanic_emissions_Carns.20190801.rc
HEMCO: Opening /shared/ucl/depts/uptrop/uclgcfs/gcgrid/gcdata/ExtData/HEMCO/OFFLINE_DUST/v2021-08/0.5x0.625/2019/08/dust_emissions_05.20190802.nc
HEMCO: Opening /shared/ucl/depts/uptrop/uclgcfs/gcgrid/gcdata/ExtData/HEMCO/OFFLINE_BIOVOC/v2021-12/0.5x0.625/2019/08/biovoc_05.20190802.nc
HEMCO: Opening /shared/ucl/depts/uptrop/uclgcfs/gcgrid/gcdata/ExtData/HEMCO/OFFLINE_SEASALT/v2019-01/0.5x0.625/2019/08/seasalt_05.20190802.nc
HEMCO: Opening /shared/ucl/depts/uptrop/uclgcfs/gcgrid/gcdata/ExtData/HEMCO/OFFLINE_SOILNOX/V2021-12/0.5x0.625/2019/08/soilnox_05.20190802.nc
HEMCO: Opening /shared/ucl/depts/uptrop/uclgcfs/gcgrid/gcdata/ExtData/GEOS_4x5/MERRA2/2019/08/MERRA2.20190802.A1.4x5.nc4
HEMCO: Opening /shared/ucl/depts/uptrop/uclgcfs/gcgrid/gcdata/ExtData/GEOS_4x5/MERRA2/2019/08/MERRA2.20190802.A3cld.4x5.nc4
HEMCO: Opening /shared/ucl/depts/uptrop/uclgcfs/gcgrid/gcdata/ExtData/GEOS_4x5/MERRA2/2019/08/MERRA2.20190802.A3dyn.4x5.nc4
HEMCO: Opening /shared/ucl/depts/uptrop/uclgcfs/gcgrid/gcdata/ExtData/GEOS_4x5/MERRA2/2019/08/MERRA2.20190802.A3mstC.4x5.nc4
HEMCO: Opening /shared/ucl/depts/uptrop/uclgcfs/gcgrid/gcdata/ExtData/GEOS_4x5/MERRA2/2019/08/MERRA2.20190802.A3mstE.4x5.nc4
HEMCO: Opening /shared/ucl/depts/uptrop/uclgcfs/gcgrid/gcdata/ExtData/GEOS_4x5/MERRA2/2019/08/MERRA2.20190802.I3.4x5.nc4
HEMCO: Opening /shared/ucl/depts/uptrop/uclgcfs/gcgrid/gcdata/ExtData/GEOS_4x5/MERRA2/2019/08/MERRA2.20190803.I3.4x5.nc4
HEMCO: Opening /shared/ucl/depts/uptrop/uclgcfs/gcgrid/gcdata/ExtData/HEMCO/Yuan_XLAI/v2021-06/Yuan_proc_MODIS_XLAI.025x025.2019.nc
HEMCO: Opening /shared/ucl/depts/uptrop/uclgcfs/gcgrid/gcdata/ExtData/HEMCO/OFFLINE_LIGHTNING/v2020-03/MERRA2/2019/FLASH_CTH_MERRA2_0.5x0.625_2019_08.nc4
HEMCO (VOLCANO): Opening /shared/ucl/depts/uptrop/uclgcfs/gcgrid/gcdata/ExtData/HEMCO/VOLCANO/v2021-09/2019/08/so2_volcanic_emissions_Carns.20190802.rc
HEMCO (VOLCANO): Opening /shared/ucl/depts/uptrop/uclgcfs/gcgrid/gcdata/ExtData/HEMCO/VOLCANO/v2021-09/2019/08/so2_volcanic_emissions_Carns.20190802.rc
HEMCO (VOLCANO): Opening /shared/ucl/depts/uptrop/uclgcfs/gcgrid/gcdata/ExtData/HEMCO/VOLCANO/v2021-09/2019/08/so2_volcanic_emissions_Carns.20190802.rc
HEMCO (VOLCANO): Opening /shared/ucl/depts/uptrop/uclgcfs/gcgrid/gcdata/ExtData/HEMCO/VOLCANO/v2021-09/2019/08/so2_volcanic_emissions_Carns.20190802.rc
HEMCO (VOLCANO): Opening /shared/ucl/depts/uptrop/uclgcfs/gcgrid/gcdata/ExtData/HEMCO/VOLCANO/v2021-09/2019/08/so2_volcanic_emissions_Carns.20190802.rc
HEMCO (VOLCANO): Opening /shared/ucl/depts/uptrop/uclgcfs/gcgrid/gcdata/ExtData/HEMCO/VOLCANO/v2021-09/2019/08/so2_volcanic_emissions_Carns.20190802.rc
HEMCO (VOLCANO): Opening /shared/ucl/depts/uptrop/uclgcfs/gcgrid/gcdata/ExtData/HEMCO/VOLCANO/v2021-09/2019/08/so2_volcanic_emissions_Carns.20190802.rc
HEMCO (VOLCANO): Opening /shared/ucl/depts/uptrop/uclgcfs/gcgrid/gcdata/ExtData/HEMCO/VOLCANO/v2021-09/2019/08/so2_volcanic_emissions_Carns.20190802.rc
HEMCO (VOLCANO): Opening /shared/ucl/depts/uptrop/uclgcfs/gcgrid/gcdata/ExtData/HEMCO/VOLCANO/v2021-09/2019/08/so2_volcanic_emissions_Carns.20190802.rc
HEMCO (VOLCANO): Opening /shared/ucl/depts/uptrop/uclgcfs/gcgrid/gcdata/ExtData/HEMCO/VOLCANO/v2021-09/2019/08/so2_volcanic_emissions_Carns.20190802.rc
HEMCO (VOLCANO): Opening /shared/ucl/depts/uptrop/uclgcfs/gcgrid/gcdata/ExtData/HEMCO/VOLCANO/v2021-09/2019/08/so2_volcanic_emissions_Carns.20190802.rc
HEMCO (VOLCANO): Opening /shared/ucl/depts/uptrop/uclgcfs/gcgrid/gcdata/ExtData/HEMCO/VOLCANO/v2021-09/2019/08/so2_volcanic_emissions_Carns.20190802.rc
HEMCO (VOLCANO): Opening /shared/ucl/depts/uptrop/uclgcfs/gcgrid/gcdata/ExtData/HEMCO/VOLCANO/v2021-09/2019/08/so2_volcanic_emissions_Carns.20190802.rc
HEMCO (VOLCANO): Opening /shared/ucl/depts/uptrop/uclgcfs/gcgrid/gcdata/ExtData/HEMCO/VOLCANO/v2021-09/2019/08/so2_volcanic_emissions_Carns.20190802.rc
HEMCO (VOLCANO): Opening /shared/ucl/depts/uptrop/uclgcfs/gcgrid/gcdata/ExtData/HEMCO/VOLCANO/v2021-09/2019/08/so2_volcanic_emissions_Carns.20190802.rc
HEMCO (VOLCANO): Opening /shared/ucl/depts/uptrop/uclgcfs/gcgrid/gcdata/ExtData/HEMCO/VOLCANO/v2021-09/2019/08/so2_volcanic_emissions_Carns.20190802.rc
HEMCO (VOLCANO): Opening /shared/ucl/depts/uptrop/uclgcfs/gcgrid/gcdata/ExtData/HEMCO/VOLCANO/v2021-09/2019/08/so2_volcanic_emissions_Carns.20190802.rc
HEMCO (VOLCANO): Opening /shared/ucl/depts/uptrop/uclgcfs/gcgrid/gcdata/ExtData/HEMCO/VOLCANO/v2021-09/2019/08/so2_volcanic_emissions_Carns.20190802.rc
HEMCO (VOLCANO): Opening /shared/ucl/depts/uptrop/uclgcfs/gcgrid/gcdata/ExtData/HEMCO/VOLCANO/v2021-09/2019/08/so2_volcanic_emissions_Carns.20190802.rc
HEMCO (VOLCANO): Opening /shared/ucl/depts/uptrop/uclgcfs/gcgrid/gcdata/ExtData/HEMCO/VOLCANO/v2021-09/2019/08/so2_volcanic_emissions_Carns.20190802.rc
HEMCO (VOLCANO): Opening /shared/ucl/depts/uptrop/uclgcfs/gcgrid/gcdata/ExtData/HEMCO/VOLCANO/v2021-09/2019/08/so2_volcanic_emissions_Carns.20190802.rc
HEMCO (VOLCANO): Opening /shared/ucl/depts/uptrop/uclgcfs/gcgrid/gcdata/ExtData/HEMCO/VOLCANO/v2021-09/2019/08/so2_volcanic_emissions_Carns.20190802.rc
HEMCO (VOLCANO): Opening /shared/ucl/depts/uptrop/uclgcfs/gcgrid/gcdata/ExtData/HEMCO/VOLCANO/v2021-09/2019/08/so2_volcanic_emissions_Carns.20190802.rc
HEMCO (VOLCANO): Opening /shared/ucl/depts/uptrop/uclgcfs/gcgrid/gcdata/ExtData/HEMCO/VOLCANO/v2021-09/2019/08/so2_volcanic_emissions_Carns.20190802.rc
HEMCO (VOLCANO): Opening /shared/ucl/depts/uptrop/uclgcfs/gcgrid/gcdata/ExtData/HEMCO/VOLCANO/v2021-09/2019/08/so2_volcanic_emissions_Carns.20190802.rc
HEMCO (VOLCANO): Opening /shared/ucl/depts/uptrop/uclgcfs/gcgrid/gcdata/ExtData/HEMCO/VOLCANO/v2021-09/2019/08/so2_volcanic_emissions_Carns.20190802.rc
HEMCO (VOLCANO): Opening /shared/ucl/depts/uptrop/uclgcfs/gcgrid/gcdata/ExtData/HEMCO/VOLCANO/v2021-09/2019/08/so2_volcanic_emissions_Carns.20190802.rc
HEMCO (VOLCANO): Opening /shared/ucl/depts/uptrop/uclgcfs/gcgrid/gcdata/ExtData/HEMCO/VOLCANO/v2021-09/2019/08/so2_volcanic_emissions_Carns.20190802.rc
HEMCO (VOLCANO): Opening /shared/ucl/depts/uptrop/uclgcfs/gcgrid/gcdata/ExtData/HEMCO/VOLCANO/v2021-09/2019/08/so2_volcanic_emissions_Carns.20190802.rc
HEMCO (VOLCANO): Opening /shared/ucl/depts/uptrop/uclgcfs/gcgrid/gcdata/ExtData/HEMCO/VOLCANO/v2021-09/2019/08/so2_volcanic_emissions_Carns.20190802.rc
HEMCO (VOLCANO): Opening /shared/ucl/depts/uptrop/uclgcfs/gcgrid/gcdata/ExtData/HEMCO/VOLCANO/v2021-09/2019/08/so2_volcanic_emissions_Carns.20190802.rc
HEMCO (VOLCANO): Opening /shared/ucl/depts/uptrop/uclgcfs/gcgrid/gcdata/ExtData/HEMCO/VOLCANO/v2021-09/2019/08/so2_volcanic_emissions_Carns.20190802.rc
HEMCO (VOLCANO): Opening /shared/ucl/depts/uptrop/uclgcfs/gcgrid/gcdata/ExtData/HEMCO/VOLCANO/v2021-09/2019/08/so2_volcanic_emissions_Carns.20190802.rc
HEMCO (VOLCANO): Opening /shared/ucl/depts/uptrop/uclgcfs/gcgrid/gcdata/ExtData/HEMCO/VOLCANO/v2021-09/2019/08/so2_volcanic_emissions_Carns.20190802.rc
HEMCO (VOLCANO): Opening /shared/ucl/depts/uptrop/uclgcfs/gcgrid/gcdata/ExtData/HEMCO/VOLCANO/v2021-09/2019/08/so2_volcanic_emissions_Carns.20190802.rc
HEMCO (VOLCANO): Opening /shared/ucl/depts/uptrop/uclgcfs/gcgrid/gcdata/ExtData/HEMCO/VOLCANO/v2021-09/2019/08/so2_volcanic_emissions_Carns.20190802.rc
HEMCO (VOLCANO): Opening /shared/ucl/depts/uptrop/uclgcfs/gcgrid/gcdata/ExtData/HEMCO/VOLCANO/v2021-09/2019/08/so2_volcanic_emissions_Carns.20190802.rc
HEMCO (VOLCANO): Opening /shared/ucl/depts/uptrop/uclgcfs/gcgrid/gcdata/ExtData/HEMCO/VOLCANO/v2021-09/2019/08/so2_volcanic_emissions_Carns.20190802.rc
HEMCO (VOLCANO): Opening /shared/ucl/depts/uptrop/uclgcfs/gcgrid/gcdata/ExtData/HEMCO/VOLCANO/v2021-09/2019/08/so2_volcanic_emissions_Carns.20190802.rc
HEMCO (VOLCANO): Opening /shared/ucl/depts/uptrop/uclgcfs/gcgrid/gcdata/ExtData/HEMCO/VOLCANO/v2021-09/2019/08/so2_volcanic_emissions_Carns.20190802.rc
HEMCO (VOLCANO): Opening /shared/ucl/depts/uptrop/uclgcfs/gcgrid/gcdata/ExtData/HEMCO/VOLCANO/v2021-09/2019/08/so2_volcanic_emissions_Carns.20190802.rc
HEMCO (VOLCANO): Opening /shared/ucl/depts/uptrop/uclgcfs/gcgrid/gcdata/ExtData/HEMCO/VOLCANO/v2021-09/2019/08/so2_volcanic_emissions_Carns.20190802.rc
HEMCO (VOLCANO): Opening /shared/ucl/depts/uptrop/uclgcfs/gcgrid/gcdata/ExtData/HEMCO/VOLCANO/v2021-09/2019/08/so2_volcanic_emissions_Carns.20190802.rc
HEMCO (VOLCANO): Opening /shared/ucl/depts/uptrop/uclgcfs/gcgrid/gcdata/ExtData/HEMCO/VOLCANO/v2021-09/2019/08/so2_volcanic_emissions_Carns.20190802.rc
HEMCO (VOLCANO): Opening /shared/ucl/depts/uptrop/uclgcfs/gcgrid/gcdata/ExtData/HEMCO/VOLCANO/v2021-09/2019/08/so2_volcanic_emissions_Carns.20190802.rc
HEMCO (VOLCANO): Opening /shared/ucl/depts/uptrop/uclgcfs/gcgrid/gcdata/ExtData/HEMCO/VOLCANO/v2021-09/2019/08/so2_volcanic_emissions_Carns.20190802.rc
HEMCO (VOLCANO): Opening /shared/ucl/depts/uptrop/uclgcfs/gcgrid/gcdata/ExtData/HEMCO/VOLCANO/v2021-09/2019/08/so2_volcanic_emissions_Carns.20190802.rc
HEMCO (VOLCANO): Opening /shared/ucl/depts/uptrop/uclgcfs/gcgrid/gcdata/ExtData/HEMCO/VOLCANO/v2021-09/2019/08/so2_volcanic_emissions_Carns.20190802.rc
HEMCO (VOLCANO): Opening /shared/ucl/depts/uptrop/uclgcfs/gcgrid/gcdata/ExtData/HEMCO/VOLCANO/v2021-09/2019/08/so2_volcanic_emissions_Carns.20190802.rc
HEMCO (VOLCANO): Opening /shared/ucl/depts/uptrop/uclgcfs/gcgrid/gcdata/ExtData/HEMCO/VOLCANO/v2021-09/2019/08/so2_volcanic_emissions_Carns.20190802.rc
HEMCO (VOLCANO): Opening /shared/ucl/depts/uptrop/uclgcfs/gcgrid/gcdata/ExtData/HEMCO/VOLCANO/v2021-09/2019/08/so2_volcanic_emissions_Carns.20190802.rc
HEMCO (VOLCANO): Opening /shared/ucl/depts/uptrop/uclgcfs/gcgrid/gcdata/ExtData/HEMCO/VOLCANO/v2021-09/2019/08/so2_volcanic_emissions_Carns.20190802.rc
HEMCO (VOLCANO): Opening /shared/ucl/depts/uptrop/uclgcfs/gcgrid/gcdata/ExtData/HEMCO/VOLCANO/v2021-09/2019/08/so2_volcanic_emissions_Carns.20190802.rc
HEMCO (VOLCANO): Opening /shared/ucl/depts/uptrop/uclgcfs/gcgrid/gcdata/ExtData/HEMCO/VOLCANO/v2021-09/2019/08/so2_volcanic_emissions_Carns.20190802.rc
HEMCO (VOLCANO): Opening /shared/ucl/depts/uptrop/uclgcfs/gcgrid/gcdata/ExtData/HEMCO/VOLCANO/v2021-09/2019/08/so2_volcanic_emissions_Carns.20190802.rc
HEMCO (VOLCANO): Opening /shared/ucl/depts/uptrop/uclgcfs/gcgrid/gcdata/ExtData/HEMCO/VOLCANO/v2021-09/2019/08/so2_volcanic_emissions_Carns.20190802.rc
HEMCO (VOLCANO): Opening /shared/ucl/depts/uptrop/uclgcfs/gcgrid/gcdata/ExtData/HEMCO/VOLCANO/v2021-09/2019/08/so2_volcanic_emissions_Carns.20190802.rc
HEMCO (VOLCANO): Opening /shared/ucl/depts/uptrop/uclgcfs/gcgrid/gcdata/ExtData/HEMCO/VOLCANO/v2021-09/2019/08/so2_volcanic_emissions_Carns.20190802.rc
HEMCO (VOLCANO): Opening /shared/ucl/depts/uptrop/uclgcfs/gcgrid/gcdata/ExtData/HEMCO/VOLCANO/v2021-09/2019/08/so2_volcanic_emissions_Carns.20190802.rc
HEMCO (VOLCANO): Opening /shared/ucl/depts/uptrop/uclgcfs/gcgrid/gcdata/ExtData/HEMCO/VOLCANO/v2021-09/2019/08/so2_volcanic_emissions_Carns.20190802.rc
HEMCO (VOLCANO): Opening /shared/ucl/depts/uptrop/uclgcfs/gcgrid/gcdata/ExtData/HEMCO/VOLCANO/v2021-09/2019/08/so2_volcanic_emissions_Carns.20190802.rc
HEMCO (VOLCANO): Opening /shared/ucl/depts/uptrop/uclgcfs/gcgrid/gcdata/ExtData/HEMCO/VOLCANO/v2021-09/2019/08/so2_volcanic_emissions_Carns.20190802.rc
HEMCO (VOLCANO): Opening /shared/ucl/depts/uptrop/uclgcfs/gcgrid/gcdata/ExtData/HEMCO/VOLCANO/v2021-09/2019/08/so2_volcanic_emissions_Carns.20190802.rc
HEMCO (VOLCANO): Opening /shared/ucl/depts/uptrop/uclgcfs/gcgrid/gcdata/ExtData/HEMCO/VOLCANO/v2021-09/2019/08/so2_volcanic_emissions_Carns.20190802.rc
HEMCO (VOLCANO): Opening /shared/ucl/depts/uptrop/uclgcfs/gcgrid/gcdata/ExtData/HEMCO/VOLCANO/v2021-09/2019/08/so2_volcanic_emissions_Carns.20190802.rc
HEMCO (VOLCANO): Opening /shared/ucl/depts/uptrop/uclgcfs/gcgrid/gcdata/ExtData/HEMCO/VOLCANO/v2021-09/2019/08/so2_volcanic_emissions_Carns.20190802.rc
HEMCO (VOLCANO): Opening /shared/ucl/depts/uptrop/uclgcfs/gcgrid/gcdata/ExtData/HEMCO/VOLCANO/v2021-09/2019/08/so2_volcanic_emissions_Carns.20190802.rc
HEMCO (VOLCANO): Opening /shared/ucl/depts/uptrop/uclgcfs/gcgrid/gcdata/ExtData/HEMCO/VOLCANO/v2021-09/2019/08/so2_volcanic_emissions_Carns.20190802.rc
HEMCO (VOLCANO): Opening /shared/ucl/depts/uptrop/uclgcfs/gcgrid/gcdata/ExtData/HEMCO/VOLCANO/v2021-09/2019/08/so2_volcanic_emissions_Carns.20190802.rc
HEMCO (VOLCANO): Opening /shared/ucl/depts/uptrop/uclgcfs/gcgrid/gcdata/ExtData/HEMCO/VOLCANO/v2021-09/2019/08/so2_volcanic_emissions_Carns.20190802.rc
HEMCO (VOLCANO): Opening /shared/ucl/depts/uptrop/uclgcfs/gcgrid/gcdata/ExtData/HEMCO/VOLCANO/v2021-09/2019/08/so2_volcanic_emissions_Carns.20190802.rc
HEMCO (VOLCANO): Opening /shared/ucl/depts/uptrop/uclgcfs/gcgrid/gcdata/ExtData/HEMCO/VOLCANO/v2021-09/2019/08/so2_volcanic_emissions_Carns.20190802.rc
HEMCO: Opening /shared/ucl/depts/uptrop/uclgcfs/gcgrid/gcdata/ExtData/HEMCO/OFFLINE_DUST/v2021-08/0.5x0.625/2019/08/dust_emissions_05.20190803.nc
HEMCO: Opening /shared/ucl/depts/uptrop/uclgcfs/gcgrid/gcdata/ExtData/HEMCO/OFFLINE_BIOVOC/v2021-12/0.5x0.625/2019/08/biovoc_05.20190803.nc
HEMCO: Opening /shared/ucl/depts/uptrop/uclgcfs/gcgrid/gcdata/ExtData/HEMCO/OFFLINE_SEASALT/v2019-01/0.5x0.625/2019/08/seasalt_05.20190803.nc
HEMCO: Opening /shared/ucl/depts/uptrop/uclgcfs/gcgrid/gcdata/ExtData/HEMCO/OFFLINE_SOILNOX/V2021-12/0.5x0.625/2019/08/soilnox_05.20190803.nc
HEMCO: Opening /shared/ucl/depts/uptrop/uclgcfs/gcgrid/gcdata/ExtData/GEOS_4x5/MERRA2/2019/08/MERRA2.20190803.A1.4x5.nc4
HEMCO: Opening /shared/ucl/depts/uptrop/uclgcfs/gcgrid/gcdata/ExtData/GEOS_4x5/MERRA2/2019/08/MERRA2.20190803.A3cld.4x5.nc4
HEMCO: Opening /shared/ucl/depts/uptrop/uclgcfs/gcgrid/gcdata/ExtData/GEOS_4x5/MERRA2/2019/08/MERRA2.20190803.A3dyn.4x5.nc4
HEMCO: Opening /shared/ucl/depts/uptrop/uclgcfs/gcgrid/gcdata/ExtData/GEOS_4x5/MERRA2/2019/08/MERRA2.20190803.A3mstC.4x5.nc4
HEMCO: Opening /shared/ucl/depts/uptrop/uclgcfs/gcgrid/gcdata/ExtData/GEOS_4x5/MERRA2/2019/08/MERRA2.20190803.A3mstE.4x5.nc4
HEMCO: Opening /shared/ucl/depts/uptrop/uclgcfs/gcgrid/gcdata/ExtData/GEOS_4x5/MERRA2/2019/08/MERRA2.20190803.I3.4x5.nc4
HEMCO: Opening /shared/ucl/depts/uptrop/uclgcfs/gcgrid/gcdata/ExtData/GEOS_4x5/MERRA2/2019/08/MERRA2.20190804.I3.4x5.nc4
HEMCO: Opening /shared/ucl/depts/uptrop/uclgcfs/gcgrid/gcdata/ExtData/HEMCO/Yuan_XLAI/v2021-06/Yuan_proc_MODIS_XLAI.025x025.2019.nc
HEMCO: Opening /shared/ucl/depts/uptrop/uclgcfs/gcgrid/gcdata/ExtData/HEMCO/OFFLINE_LIGHTNING/v2020-03/MERRA2/2019/FLASH_CTH_MERRA2_0.5x0.625_2019_08.nc4
HEMCO (VOLCANO): Opening /shared/ucl/depts/uptrop/uclgcfs/gcgrid/gcdata/ExtData/HEMCO/VOLCANO/v2021-09/2019/08/so2_volcanic_emissions_Carns.20190803.rc
HEMCO (VOLCANO): Opening /shared/ucl/depts/uptrop/uclgcfs/gcgrid/gcdata/ExtData/HEMCO/VOLCANO/v2021-09/2019/08/so2_volcanic_emissions_Carns.20190803.rc
HEMCO (VOLCANO): Opening /shared/ucl/depts/uptrop/uclgcfs/gcgrid/gcdata/ExtData/HEMCO/VOLCANO/v2021-09/2019/08/so2_volcanic_emissions_Carns.20190803.rc
HEMCO (VOLCANO): Opening /shared/ucl/depts/uptrop/uclgcfs/gcgrid/gcdata/ExtData/HEMCO/VOLCANO/v2021-09/2019/08/so2_volcanic_emissions_Carns.20190803.rc
HEMCO (VOLCANO): Opening /shared/ucl/depts/uptrop/uclgcfs/gcgrid/gcdata/ExtData/HEMCO/VOLCANO/v2021-09/2019/08/so2_volcanic_emissions_Carns.20190803.rc
HEMCO (VOLCANO): Opening /shared/ucl/depts/uptrop/uclgcfs/gcgrid/gcdata/ExtData/HEMCO/VOLCANO/v2021-09/2019/08/so2_volcanic_emissions_Carns.20190803.rc
HEMCO (VOLCANO): Opening /shared/ucl/depts/uptrop/uclgcfs/gcgrid/gcdata/ExtData/HEMCO/VOLCANO/v2021-09/2019/08/so2_volcanic_emissions_Carns.20190803.rc
HEMCO (VOLCANO): Opening /shared/ucl/depts/uptrop/uclgcfs/gcgrid/gcdata/ExtData/HEMCO/VOLCANO/v2021-09/2019/08/so2_volcanic_emissions_Carns.20190803.rc
HEMCO (VOLCANO): Opening /shared/ucl/depts/uptrop/uclgcfs/gcgrid/gcdata/ExtData/HEMCO/VOLCANO/v2021-09/2019/08/so2_volcanic_emissions_Carns.20190803.rc
HEMCO (VOLCANO): Opening /shared/ucl/depts/uptrop/uclgcfs/gcgrid/gcdata/ExtData/HEMCO/VOLCANO/v2021-09/2019/08/so2_volcanic_emissions_Carns.20190803.rc
HEMCO (VOLCANO): Opening /shared/ucl/depts/uptrop/uclgcfs/gcgrid/gcdata/ExtData/HEMCO/VOLCANO/v2021-09/2019/08/so2_volcanic_emissions_Carns.20190803.rc
HEMCO (VOLCANO): Opening /shared/ucl/depts/uptrop/uclgcfs/gcgrid/gcdata/ExtData/HEMCO/VOLCANO/v2021-09/2019/08/so2_volcanic_emissions_Carns.20190803.rc
HEMCO (VOLCANO): Opening /shared/ucl/depts/uptrop/uclgcfs/gcgrid/gcdata/ExtData/HEMCO/VOLCANO/v2021-09/2019/08/so2_volcanic_emissions_Carns.20190803.rc
HEMCO (VOLCANO): Opening /shared/ucl/depts/uptrop/uclgcfs/gcgrid/gcdata/ExtData/HEMCO/VOLCANO/v2021-09/2019/08/so2_volcanic_emissions_Carns.20190803.rc
HEMCO (VOLCANO): Opening /shared/ucl/depts/uptrop/uclgcfs/gcgrid/gcdata/ExtData/HEMCO/VOLCANO/v2021-09/2019/08/so2_volcanic_emissions_Carns.20190803.rc
HEMCO (VOLCANO): Opening /shared/ucl/depts/uptrop/uclgcfs/gcgrid/gcdata/ExtData/HEMCO/VOLCANO/v2021-09/2019/08/so2_volcanic_emissions_Carns.20190803.rc
HEMCO (VOLCANO): Opening /shared/ucl/depts/uptrop/uclgcfs/gcgrid/gcdata/ExtData/HEMCO/VOLCANO/v2021-09/2019/08/so2_volcanic_emissions_Carns.20190803.rc
HEMCO (VOLCANO): Opening /shared/ucl/depts/uptrop/uclgcfs/gcgrid/gcdata/ExtData/HEMCO/VOLCANO/v2021-09/2019/08/so2_volcanic_emissions_Carns.20190803.rc
HEMCO (VOLCANO): Opening /shared/ucl/depts/uptrop/uclgcfs/gcgrid/gcdata/ExtData/HEMCO/VOLCANO/v2021-09/2019/08/so2_volcanic_emissions_Carns.20190803.rc
HEMCO (VOLCANO): Opening /shared/ucl/depts/uptrop/uclgcfs/gcgrid/gcdata/ExtData/HEMCO/VOLCANO/v2021-09/2019/08/so2_volcanic_emissions_Carns.20190803.rc
HEMCO (VOLCANO): Opening /shared/ucl/depts/uptrop/uclgcfs/gcgrid/gcdata/ExtData/HEMCO/VOLCANO/v2021-09/2019/08/so2_volcanic_emissions_Carns.20190803.rc
HEMCO (VOLCANO): Opening /shared/ucl/depts/uptrop/uclgcfs/gcgrid/gcdata/ExtData/HEMCO/VOLCANO/v2021-09/2019/08/so2_volcanic_emissions_Carns.20190803.rc
HEMCO (VOLCANO): Opening /shared/ucl/depts/uptrop/uclgcfs/gcgrid/gcdata/ExtData/HEMCO/VOLCANO/v2021-09/2019/08/so2_volcanic_emissions_Carns.20190803.rc
HEMCO (VOLCANO): Opening /shared/ucl/depts/uptrop/uclgcfs/gcgrid/gcdata/ExtData/HEMCO/VOLCANO/v2021-09/2019/08/so2_volcanic_emissions_Carns.20190803.rc
HEMCO (VOLCANO): Opening /shared/ucl/depts/uptrop/uclgcfs/gcgrid/gcdata/ExtData/HEMCO/VOLCANO/v2021-09/2019/08/so2_volcanic_emissions_Carns.20190803.rc
HEMCO (VOLCANO): Opening /shared/ucl/depts/uptrop/uclgcfs/gcgrid/gcdata/ExtData/HEMCO/VOLCANO/v2021-09/2019/08/so2_volcanic_emissions_Carns.20190803.rc
HEMCO (VOLCANO): Opening /shared/ucl/depts/uptrop/uclgcfs/gcgrid/gcdata/ExtData/HEMCO/VOLCANO/v2021-09/2019/08/so2_volcanic_emissions_Carns.20190803.rc
HEMCO (VOLCANO): Opening /shared/ucl/depts/uptrop/uclgcfs/gcgrid/gcdata/ExtData/HEMCO/VOLCANO/v2021-09/2019/08/so2_volcanic_emissions_Carns.20190803.rc
HEMCO (VOLCANO): Opening /shared/ucl/depts/uptrop/uclgcfs/gcgrid/gcdata/ExtData/HEMCO/VOLCANO/v2021-09/2019/08/so2_volcanic_emissions_Carns.20190803.rc
HEMCO (VOLCANO): Opening /shared/ucl/depts/uptrop/uclgcfs/gcgrid/gcdata/ExtData/HEMCO/VOLCANO/v2021-09/2019/08/so2_volcanic_emissions_Carns.20190803.rc
HEMCO (VOLCANO): Opening /shared/ucl/depts/uptrop/uclgcfs/gcgrid/gcdata/ExtData/HEMCO/VOLCANO/v2021-09/2019/08/so2_volcanic_emissions_Carns.20190803.rc
HEMCO (VOLCANO): Opening /shared/ucl/depts/uptrop/uclgcfs/gcgrid/gcdata/ExtData/HEMCO/VOLCANO/v2021-09/2019/08/so2_volcanic_emissions_Carns.20190803.rc
HEMCO (VOLCANO): Opening /shared/ucl/depts/uptrop/uclgcfs/gcgrid/gcdata/ExtData/HEMCO/VOLCANO/v2021-09/2019/08/so2_volcanic_emissions_Carns.20190803.rc
HEMCO (VOLCANO): Opening /shared/ucl/depts/uptrop/uclgcfs/gcgrid/gcdata/ExtData/HEMCO/VOLCANO/v2021-09/2019/08/so2_volcanic_emissions_Carns.20190803.rc
HEMCO (VOLCANO): Opening /shared/ucl/depts/uptrop/uclgcfs/gcgrid/gcdata/ExtData/HEMCO/VOLCANO/v2021-09/2019/08/so2_volcanic_emissions_Carns.20190803.rc
HEMCO (VOLCANO): Opening /shared/ucl/depts/uptrop/uclgcfs/gcgrid/gcdata/ExtData/HEMCO/VOLCANO/v2021-09/2019/08/so2_volcanic_emissions_Carns.20190803.rc
HEMCO (VOLCANO): Opening /shared/ucl/depts/uptrop/uclgcfs/gcgrid/gcdata/ExtData/HEMCO/VOLCANO/v2021-09/2019/08/so2_volcanic_emissions_Carns.20190803.rc
HEMCO (VOLCANO): Opening /shared/ucl/depts/uptrop/uclgcfs/gcgrid/gcdata/ExtData/HEMCO/VOLCANO/v2021-09/2019/08/so2_volcanic_emissions_Carns.20190803.rc
HEMCO (VOLCANO): Opening /shared/ucl/depts/uptrop/uclgcfs/gcgrid/gcdata/ExtData/HEMCO/VOLCANO/v2021-09/2019/08/so2_volcanic_emissions_Carns.20190803.rc
HEMCO (VOLCANO): Opening /shared/ucl/depts/uptrop/uclgcfs/gcgrid/gcdata/ExtData/HEMCO/VOLCANO/v2021-09/2019/08/so2_volcanic_emissions_Carns.20190803.rc
HEMCO (VOLCANO): Opening /shared/ucl/depts/uptrop/uclgcfs/gcgrid/gcdata/ExtData/HEMCO/VOLCANO/v2021-09/2019/08/so2_volcanic_emissions_Carns.20190803.rc
HEMCO (VOLCANO): Opening /shared/ucl/depts/uptrop/uclgcfs/gcgrid/gcdata/ExtData/HEMCO/VOLCANO/v2021-09/2019/08/so2_volcanic_emissions_Carns.20190803.rc
HEMCO (VOLCANO): Opening /shared/ucl/depts/uptrop/uclgcfs/gcgrid/gcdata/ExtData/HEMCO/VOLCANO/v2021-09/2019/08/so2_volcanic_emissions_Carns.20190803.rc
HEMCO (VOLCANO): Opening /shared/ucl/depts/uptrop/uclgcfs/gcgrid/gcdata/ExtData/HEMCO/VOLCANO/v2021-09/2019/08/so2_volcanic_emissions_Carns.20190803.rc
HEMCO (VOLCANO): Opening /shared/ucl/depts/uptrop/uclgcfs/gcgrid/gcdata/ExtData/HEMCO/VOLCANO/v2021-09/2019/08/so2_volcanic_emissions_Carns.20190803.rc
HEMCO (VOLCANO): Opening /shared/ucl/depts/uptrop/uclgcfs/gcgrid/gcdata/ExtData/HEMCO/VOLCANO/v2021-09/2019/08/so2_volcanic_emissions_Carns.20190803.rc
HEMCO (VOLCANO): Opening /shared/ucl/depts/uptrop/uclgcfs/gcgrid/gcdata/ExtData/HEMCO/VOLCANO/v2021-09/2019/08/so2_volcanic_emissions_Carns.20190803.rc
HEMCO (VOLCANO): Opening /shared/ucl/depts/uptrop/uclgcfs/gcgrid/gcdata/ExtData/HEMCO/VOLCANO/v2021-09/2019/08/so2_volcanic_emissions_Carns.20190803.rc
HEMCO (VOLCANO): Opening /shared/ucl/depts/uptrop/uclgcfs/gcgrid/gcdata/ExtData/HEMCO/VOLCANO/v2021-09/2019/08/so2_volcanic_emissions_Carns.20190803.rc
HEMCO (VOLCANO): Opening /shared/ucl/depts/uptrop/uclgcfs/gcgrid/gcdata/ExtData/HEMCO/VOLCANO/v2021-09/2019/08/so2_volcanic_emissions_Carns.20190803.rc
HEMCO (VOLCANO): Opening /shared/ucl/depts/uptrop/uclgcfs/gcgrid/gcdata/ExtData/HEMCO/VOLCANO/v2021-09/2019/08/so2_volcanic_emissions_Carns.20190803.rc
HEMCO (VOLCANO): Opening /shared/ucl/depts/uptrop/uclgcfs/gcgrid/gcdata/ExtData/HEMCO/VOLCANO/v2021-09/2019/08/so2_volcanic_emissions_Carns.20190803.rc
HEMCO (VOLCANO): Opening /shared/ucl/depts/uptrop/uclgcfs/gcgrid/gcdata/ExtData/HEMCO/VOLCANO/v2021-09/2019/08/so2_volcanic_emissions_Carns.20190803.rc
HEMCO (VOLCANO): Opening /shared/ucl/depts/uptrop/uclgcfs/gcgrid/gcdata/ExtData/HEMCO/VOLCANO/v2021-09/2019/08/so2_volcanic_emissions_Carns.20190803.rc
HEMCO (VOLCANO): Opening /shared/ucl/depts/uptrop/uclgcfs/gcgrid/gcdata/ExtData/HEMCO/VOLCANO/v2021-09/2019/08/so2_volcanic_emissions_Carns.20190803.rc
HEMCO (VOLCANO): Opening /shared/ucl/depts/uptrop/uclgcfs/gcgrid/gcdata/ExtData/HEMCO/VOLCANO/v2021-09/2019/08/so2_volcanic_emissions_Carns.20190803.rc
[...]
HEMCO (VOLCANO): Opening /shared/ucl/depts/uptrop/uclgcfs/gcgrid/gcdata/ExtData/HEMCO/VOLCANO/v2021-09/2019/12/so2_volcanic_emissions_Carns.20191231.rc
HEMCO (VOLCANO): Opening /shared/ucl/depts/uptrop/uclgcfs/gcgrid/gcdata/ExtData/HEMCO/VOLCANO/v2021-09/2019/12/so2_volcanic_emissions_Carns.20191231.rc
HEMCO (VOLCANO): Opening /shared/ucl/depts/uptrop/uclgcfs/gcgrid/gcdata/ExtData/HEMCO/VOLCANO/v2021-09/2019/12/so2_volcanic_emissions_Carns.20191231.rc
HEMCO: Opening /shared/ucl/depts/uptrop/uclgcfs/gcgrid/gcdata/ExtData/HEMCO/AnnualScalar/v2014-07/AnnualScalar.geos.1x1.nc
HEMCO: Opening /shared/ucl/depts/uptrop/uclgcfs/gcgrid/gcdata/ExtData/HEMCO/CEDS/v2021-06/2019/NO-em-anthro_CMIP_CEDS_2019.nc
HEMCO: Opening /shared/ucl/depts/uptrop/uclgcfs/gcgrid/gcdata/ExtData/HEMCO/CEDS/v2021-06/2019/CO-em-anthro_CMIP_CEDS_2019.nc
HEMCO: Opening /shared/ucl/depts/uptrop/uclgcfs/gcgrid/gcdata/ExtData/HEMCO/CEDS/v2021-06/2019/SO2-em-anthro_CMIP_CEDS_2019.nc
HEMCO: Opening /shared/ucl/depts/uptrop/uclgcfs/gcgrid/gcdata/ExtData/HEMCO/CEDS/v2021-06/2019/NH3-em-anthro_CMIP_CEDS_2019.nc
HEMCO: Opening /shared/ucl/depts/uptrop/uclgcfs/gcgrid/gcdata/ExtData/HEMCO/CEDS/v2021-06/2019/BC-em-anthro_CMIP_CEDS_2019.nc
HEMCO: Opening /shared/ucl/depts/uptrop/uclgcfs/gcgrid/gcdata/ExtData/HEMCO/CEDS/v2021-06/2019/OC-em-anthro_CMIP_CEDS_2019.nc
HEMCO: Opening /shared/ucl/depts/uptrop/uclgcfs/gcgrid/gcdata/ExtData/HEMCO/CEDS/v2021-06/2019/EOH-em-anthro_CMIP_CEDS_2019.nc
HEMCO: Opening /shared/ucl/depts/uptrop/uclgcfs/gcgrid/gcdata/ExtData/HEMCO/CEDS/v2021-06/2019/ALK4_butanes-em-anthro_CMIP_CEDS_2019.nc
HEMCO: Opening /shared/ucl/depts/uptrop/uclgcfs/gcgrid/gcdata/ExtData/HEMCO/CEDS/v2021-06/2019/ALK4_pentanes-em-anthro_CMIP_CEDS_2019.nc
HEMCO: Opening /shared/ucl/depts/uptrop/uclgcfs/gcgrid/gcdata/ExtData/HEMCO/CEDS/v2021-06/2019/ALK4_hexanes-em-anthro_CMIP_CEDS_2019.nc
HEMCO: Opening /shared/ucl/depts/uptrop/uclgcfs/gcgrid/gcdata/ExtData/HEMCO/CEDS/v2021-06/2019/C2H4-em-anthro_CMIP_CEDS_2019.nc
HEMCO: Opening /shared/ucl/depts/uptrop/uclgcfs/gcgrid/gcdata/ExtData/HEMCO/CEDS/v2021-06/2019/PRPE-em-anthro_CMIP_CEDS_2019.nc
HEMCO: Opening /shared/ucl/depts/uptrop/uclgcfs/gcgrid/gcdata/ExtData/HEMCO/CEDS/v2021-06/2019/C2H2-em-anthro_CMIP_CEDS_2019.nc
HEMCO: Opening /shared/ucl/depts/uptrop/uclgcfs/gcgrid/gcdata/ExtData/HEMCO/CEDS/v2021-06/2019/BENZ-em-anthro_CMIP_CEDS_2019.nc
HEMCO: Opening /shared/ucl/depts/uptrop/uclgcfs/gcgrid/gcdata/ExtData/HEMCO/CEDS/v2021-06/2019/TOLU-em-anthro_CMIP_CEDS_2019.nc
HEMCO: Opening /shared/ucl/depts/uptrop/uclgcfs/gcgrid/gcdata/ExtData/HEMCO/CEDS/v2021-06/2019/XYLE-em-anthro_CMIP_CEDS_2019.nc
HEMCO: Opening /shared/ucl/depts/uptrop/uclgcfs/gcgrid/gcdata/ExtData/HEMCO/CEDS/v2021-06/2019/CH2O-em-anthro_CMIP_CEDS_2019.nc
HEMCO: Opening /shared/ucl/depts/uptrop/uclgcfs/gcgrid/gcdata/ExtData/HEMCO/CEDS/v2021-06/2019/ALD2-em-anthro_CMIP_CEDS_2019.nc
HEMCO: Opening /shared/ucl/depts/uptrop/uclgcfs/gcgrid/gcdata/ExtData/HEMCO/CEDS/v2021-06/2019/MEK-em-anthro_CMIP_CEDS_2019.nc
HEMCO: Opening /shared/ucl/depts/uptrop/uclgcfs/gcgrid/gcdata/ExtData/HEMCO/CEDS/v2021-06/2019/HCOOH-em-anthro_CMIP_CEDS_2019.nc
HEMCO: Opening /shared/ucl/depts/uptrop/uclgcfs/gcgrid/gcdata/ExtData/HEMCO/NH3/v2019-08/NH3_geos.2x25.nc
HEMCO: Opening /shared/ucl/depts/uptrop/uclgcfs/gcgrid/gcdata/ExtData/HEMCO/NH3/v2018-04/NH3_Arctic_seabirds.nc
HEMCO: Opening /shared/ucl/depts/uptrop/uclgcfs/gcgrid/gcdata/ExtData/HEMCO/C2H6_2010/v2019-06/C2H6_global_anth_biof.201001.2x25.nc
HEMCO: Opening /shared/ucl/depts/uptrop/uclgcfs/gcgrid/gcdata/ExtData/HEMCO/IODINE/v2020-02/CH3I_monthly_emissions_Ordonez_2012_COARDS.nc
HEMCO: Opening /shared/ucl/depts/uptrop/uclgcfs/gcgrid/gcdata/ExtData/HEMCO/IODINE/v2020-02/CH2I2_monthly_emissions_Ordonez_2012_COARDS.nc
HEMCO: Opening /shared/ucl/depts/uptrop/uclgcfs/gcgrid/gcdata/ExtData/HEMCO/IODINE/v2020-02/CH2ICl_monthly_emissions_Ordonez_2012_COARDS.nc
HEMCO: Opening /shared/ucl/depts/uptrop/uclgcfs/gcgrid/gcdata/ExtData/HEMCO/IODINE/v2020-02/CH2IBr_monthly_emissions_Ordonez_2012_COARDS.nc
HEMCO: Opening /shared/ucl/depts/uptrop/uclgcfs/gcgrid/gcdata/ExtData/HEMCO/CEDS/v2021-06/2019/CO-em-anthro_CMIP_CEDS_2019.nc
HEMCO: Opening /shared/ucl/depts/uptrop/uclgcfs/gcgrid/gcdata/ExtData/HEMCO/CEDS/v2021-06/2019/SO2-em-anthro_CMIP_CEDS_2019.nc
HEMCO: Opening /shared/ucl/depts/uptrop/uclgcfs/gcgrid/gcdata/ExtData/HEMCO/CEDS/v2021-06/2019/NH3-em-anthro_CMIP_CEDS_2019.nc
HEMCO: Opening /shared/ucl/depts/uptrop/uclgcfs/gcgrid/gcdata/ExtData/HEMCO/CEDS/v2021-06/2019/BC-em-anthro_CMIP_CEDS_2019.nc
HEMCO: Opening /shared/ucl/depts/uptrop/uclgcfs/gcgrid/gcdata/ExtData/HEMCO/CEDS/v2021-06/2019/OC-em-anthro_CMIP_CEDS_2019.nc
HEMCO: Opening /shared/ucl/depts/uptrop/uclgcfs/gcgrid/gcdata/ExtData/HEMCO/CEDS/v2021-06/2019/EOH-em-anthro_CMIP_CEDS_2019.nc
HEMCO: Opening /shared/ucl/depts/uptrop/uclgcfs/gcgrid/gcdata/ExtData/HEMCO/CEDS/v2021-06/2019/C2H6-em-anthro_CMIP_CEDS_2019.nc
HEMCO: Opening /shared/ucl/depts/uptrop/uclgcfs/gcgrid/gcdata/ExtData/HEMCO/CEDS/v2021-06/2019/C3H8-em-anthro_CMIP_CEDS_2019.nc
HEMCO: Opening /shared/ucl/depts/uptrop/uclgcfs/gcgrid/gcdata/ExtData/HEMCO/CEDS/v2021-06/2019/ALK4_butanes-em-anthro_CMIP_CEDS_2019.nc
HEMCO: Opening /shared/ucl/depts/uptrop/uclgcfs/gcgrid/gcdata/ExtData/HEMCO/CEDS/v2021-06/2019/ALK4_pentanes-em-anthro_CMIP_CEDS_2019.nc
HEMCO: Opening /shared/ucl/depts/uptrop/uclgcfs/gcgrid/gcdata/ExtData/HEMCO/CEDS/v2021-06/2019/ALK4_hexanes-em-anthro_CMIP_CEDS_2019.nc
HEMCO: Opening /shared/ucl/depts/uptrop/uclgcfs/gcgrid/gcdata/ExtData/HEMCO/CEDS/v2021-06/2019/C2H4-em-anthro_CMIP_CEDS_2019.nc
HEMCO: Opening /shared/ucl/depts/uptrop/uclgcfs/gcgrid/gcdata/ExtData/HEMCO/CEDS/v2021-06/2019/PRPE-em-anthro_CMIP_CEDS_2019.nc
HEMCO: Opening /shared/ucl/depts/uptrop/uclgcfs/gcgrid/gcdata/ExtData/HEMCO/CEDS/v2021-06/2019/C2H2-em-anthro_CMIP_CEDS_2019.nc
HEMCO: Opening /shared/ucl/depts/uptrop/uclgcfs/gcgrid/gcdata/ExtData/HEMCO/CEDS/v2021-06/2019/BENZ-em-anthro_CMIP_CEDS_2019.nc
HEMCO: Opening /shared/ucl/depts/uptrop/uclgcfs/gcgrid/gcdata/ExtData/HEMCO/CEDS/v2021-06/2019/TOLU-em-anthro_CMIP_CEDS_2019.nc
HEMCO: Opening /shared/ucl/depts/uptrop/uclgcfs/gcgrid/gcdata/ExtData/HEMCO/CEDS/v2021-06/2019/XYLE-em-anthro_CMIP_CEDS_2019.nc
HEMCO: Opening /shared/ucl/depts/uptrop/uclgcfs/gcgrid/gcdata/ExtData/HEMCO/CEDS/v2021-06/2019/CH2O-em-anthro_CMIP_CEDS_2019.nc
HEMCO: Opening /shared/ucl/depts/uptrop/uclgcfs/gcgrid/gcdata/ExtData/HEMCO/CEDS/v2021-06/2019/ALD2-em-anthro_CMIP_CEDS_2019.nc
HEMCO: Opening /shared/ucl/depts/uptrop/uclgcfs/gcgrid/gcdata/ExtData/HEMCO/CEDS/v2021-06/2019/MEK-em-anthro_CMIP_CEDS_2019.nc
HEMCO: Opening /shared/ucl/depts/uptrop/uclgcfs/gcgrid/gcdata/ExtData/HEMCO/CEDS/v2021-06/2019/HCOOH-em-anthro_CMIP_CEDS_2019.nc
HEMCO: Opening /shared/ucl/depts/uptrop/uclgcfs/gcgrid/gcdata/ExtData/HEMCO/CEDS/v2021-06/2019/NO-em-anthro_CMIP_CEDS_2019.nc
HEMCO: Opening /shared/ucl/depts/uptrop/uclgcfs/gcgrid/gcdata/ExtData/HEMCO/AEIC2019/v2022-03/2019_monmean/AEIC_monmean_201901.0.5x0.625.36L.nc
HEMCO: Opening /shared/ucl/depts/uptrop/uclgcfs/gcgrid/gcdata/ExtData/HEMCO/ALD2/v2017-03/resp.geos.2x25.nc
HEMCO: Opening /shared/ucl/depts/uptrop/uclgcfs/gcgrid/gcdata/ExtData/HEMCO/AFCID/v2018-04/PM25FINE_ECLIPSE_2015.geos.2x25.nc
HEMCO: Opening /shared/ucl/depts/uptrop/uclgcfs/gcgrid/gcdata/ExtData/HEMCO/AFCID/v2018-04/PM25FINE_MEIC_2012.generic.025x025.nc
HEMCO: Opening /shared/ucl/depts/uptrop/uclgcfs/gcgrid/gcdata/ExtData/HEMCO/AFCID/v2018-04/PM25FINE_IITB_2013.generic.025x025.nc
HEMCO: Opening /shared/ucl/depts/uptrop/uclgcfs/gcgrid/gcdata/ExtData/HEMCO/DMS/v2015-07/DMS_lana.geos.1x1.nc
HEMCO: Opening /shared/ucl/depts/uptrop/uclgcfs/gcgrid/gcdata/ExtData/HEMCO/ALD2/v2017-03/ALD2_seawater.geos.2x25.nc
HEMCO: Opening /shared/ucl/depts/uptrop/uclgcfs/gcgrid/gcdata/ExtData/HEMCO/RONO2/v2019-05/RONO2_seawater.geos.2x25.nc
HEMCO: Opening /shared/ucl/depts/uptrop/uclgcfs/gcgrid/gcdata/ExtData/HEMCO/GFED4/v2020-02/2019/GFED4_gen.025x025.201901.nc
HEMCO: Opening /shared/ucl/depts/uptrop/uclgcfs/gcgrid/gcdata/ExtData/HEMCO/UVALBEDO/v2019-06/uvalbedo.geos.2x25.nc
HEMCO: Opening /shared/ucl/depts/uptrop/uclgcfs/gcgrid/gcdata/ExtData/HEMCO/STRAT/v2015-01/Bry/GEOSCCM_Bry.200701.day.nc
HEMCO: Opening /shared/ucl/depts/uptrop/uclgcfs/gcgrid/gcdata/ExtData/HEMCO/STRAT/v2015-01/Bry/GEOSCCM_Bry.200701.night.nc
HEMCO: Opening /shared/ucl/depts/uptrop/uclgcfs/gcgrid/gcdata/ExtData/HEMCO/GMI/v2015-02/gmi.clim.OH.geos5.2x25.nc
HEMCO: Opening /shared/ucl/depts/uptrop/uclgcfs/gcgrid/gcdata/ExtData/HEMCO/GMI/v2015-02/gmi.clim.ACET.geos5.2x25.nc
HEMCO: Opening /shared/ucl/depts/uptrop/uclgcfs/gcgrid/gcdata/ExtData/HEMCO/GMI/v2015-02/gmi.clim.ACTA.geos5.2x25.nc
HEMCO: Opening /shared/ucl/depts/uptrop/uclgcfs/gcgrid/gcdata/ExtData/HEMCO/GMI/v2015-02/gmi.clim.ALD2.geos5.2x25.nc
HEMCO: Opening /shared/ucl/depts/uptrop/uclgcfs/gcgrid/gcdata/ExtData/HEMCO/GMI/v2015-02/gmi.clim.ALK4.geos5.2x25.nc
HEMCO: Opening /shared/ucl/depts/uptrop/uclgcfs/gcgrid/gcdata/ExtData/HEMCO/GMI/v2015-02/gmi.clim.C2H6.geos5.2x25.nc
HEMCO: Opening /shared/ucl/depts/uptrop/uclgcfs/gcgrid/gcdata/ExtData/HEMCO/GMI/v2015-02/gmi.clim.C3H8.geos5.2x25.nc
HEMCO: Opening /shared/ucl/depts/uptrop/uclgcfs/gcgrid/gcdata/ExtData/HEMCO/GMI/v2015-02/gmi.clim.CCl4.geos5.2x25.nc
HEMCO: Opening /shared/ucl/depts/uptrop/uclgcfs/gcgrid/gcdata/ExtData/HEMCO/GMI/v2015-02/gmi.clim.CF2Cl2.geos5.2x25.nc
HEMCO: Opening /shared/ucl/depts/uptrop/uclgcfs/gcgrid/gcdata/ExtData/HEMCO/GMI/v2015-02/gmi.clim.CF2ClBr.geos5.2x25.nc
HEMCO: Opening /shared/ucl/depts/uptrop/uclgcfs/gcgrid/gcdata/ExtData/HEMCO/GMI/v2015-02/gmi.clim.CFC113.geos5.2x25.nc
HEMCO: Opening /shared/ucl/depts/uptrop/uclgcfs/gcgrid/gcdata/ExtData/HEMCO/GMI/v2015-02/gmi.clim.CFC114.geos5.2x25.nc
HEMCO: Opening /shared/ucl/depts/uptrop/uclgcfs/gcgrid/gcdata/ExtData/HEMCO/GMI/v2015-02/gmi.clim.CFC115.geos5.2x25.nc
HEMCO: Opening /shared/ucl/depts/uptrop/uclgcfs/gcgrid/gcdata/ExtData/HEMCO/GMI/v2015-02/gmi.clim.CFCl3.geos5.2x25.nc
HEMCO: Opening /shared/ucl/depts/uptrop/uclgcfs/gcgrid/gcdata/ExtData/HEMCO/GMI/v2015-02/gmi.clim.CH2O.geos5.2x25.nc
HEMCO: Opening /shared/ucl/depts/uptrop/uclgcfs/gcgrid/gcdata/ExtData/HEMCO/GMI/v2015-02/gmi.clim.CH3CCl3.geos5.2x25.nc
HEMCO: Opening /shared/ucl/depts/uptrop/uclgcfs/gcgrid/gcdata/ExtData/HEMCO/GMI/v2015-02/gmi.clim.CH3Cl.geos5.2x25.nc
HEMCO: Opening /shared/ucl/depts/uptrop/uclgcfs/gcgrid/gcdata/ExtData/HEMCO/GMI/v2015-02/gmi.clim.CH4.geos5.2x25.nc
HEMCO: Opening /shared/ucl/depts/uptrop/uclgcfs/gcgrid/gcdata/ExtData/HEMCO/GMI/v2015-02/gmi.clim.CO.geos5.2x25.nc
HEMCO: Opening /shared/ucl/depts/uptrop/uclgcfs/gcgrid/gcdata/ExtData/HEMCO/GMI/v2015-02/gmi.clim.Cl.geos5.2x25.nc
HEMCO: Opening /shared/ucl/depts/uptrop/uclgcfs/gcgrid/gcdata/ExtData/HEMCO/GMI/v2015-02/gmi.clim.Cl2.geos5.2x25.nc
HEMCO: Opening /shared/ucl/depts/uptrop/uclgcfs/gcgrid/gcdata/ExtData/HEMCO/GMI/v2015-02/gmi.clim.Cl2O2.geos5.2x25.nc
HEMCO: Opening /shared/ucl/depts/uptrop/uclgcfs/gcgrid/gcdata/ExtData/HEMCO/GMI/v2015-02/gmi.clim.ClO.geos5.2x25.nc
HEMCO: Opening /shared/ucl/depts/uptrop/uclgcfs/gcgrid/gcdata/ExtData/HEMCO/GMI/v2015-02/gmi.clim.EOH.geos5.2x25.nc
HEMCO: Opening /shared/ucl/depts/uptrop/uclgcfs/gcgrid/gcdata/ExtData/HEMCO/GMI/v2015-02/gmi.clim.ETP.geos5.2x25.nc
HEMCO: Opening /shared/ucl/depts/uptrop/uclgcfs/gcgrid/gcdata/ExtData/HEMCO/GMI/v2015-02/gmi.clim.GLYC.geos5.2x25.nc
HEMCO: Opening /shared/ucl/depts/uptrop/uclgcfs/gcgrid/gcdata/ExtData/HEMCO/GMI/v2015-02/gmi.clim.GLYX.geos5.2x25.nc
HEMCO: Opening /shared/ucl/depts/uptrop/uclgcfs/gcgrid/gcdata/ExtData/HEMCO/GMI/v2015-02/gmi.clim.H2402.geos5.2x25.nc
HEMCO: Opening /shared/ucl/depts/uptrop/uclgcfs/gcgrid/gcdata/ExtData/HEMCO/GMI/v2015-02/gmi.clim.H2O.geos5.2x25.nc
HEMCO: Opening /shared/ucl/depts/uptrop/uclgcfs/gcgrid/gcdata/ExtData/HEMCO/GMI/v2015-02/gmi.clim.H2O2.geos5.2x25.nc
HEMCO: Opening /shared/ucl/depts/uptrop/uclgcfs/gcgrid/gcdata/ExtData/HEMCO/GMI/v2015-02/gmi.clim.HAC.geos5.2x25.nc
HEMCO: Opening /shared/ucl/depts/uptrop/uclgcfs/gcgrid/gcdata/ExtData/HEMCO/GMI/v2015-02/gmi.clim.HCFC141b.geos5.2x25.nc
HEMCO: Opening /shared/ucl/depts/uptrop/uclgcfs/gcgrid/gcdata/ExtData/HEMCO/GMI/v2015-02/gmi.clim.HCFC142b.geos5.2x25.nc
HEMCO: Opening /shared/ucl/depts/uptrop/uclgcfs/gcgrid/gcdata/ExtData/HEMCO/GMI/v2015-02/gmi.clim.HCFC22.geos5.2x25.nc
HEMCO: Opening /shared/ucl/depts/uptrop/uclgcfs/gcgrid/gcdata/ExtData/HEMCO/GMI/v2015-02/gmi.clim.HCOOH.geos5.2x25.20170108.nc
HEMCO: Opening /shared/ucl/depts/uptrop/uclgcfs/gcgrid/gcdata/ExtData/HEMCO/GMI/v2015-02/gmi.clim.HCl.geos5.2x25.nc
HEMCO: Opening /shared/ucl/depts/uptrop/uclgcfs/gcgrid/gcdata/ExtData/HEMCO/GMI/v2015-02/gmi.clim.HNO2.geos5.2x25.nc
HEMCO: Opening /shared/ucl/depts/uptrop/uclgcfs/gcgrid/gcdata/ExtData/HEMCO/GMI/v2015-02/gmi.clim.HNO3.geos5.2x25.nc
HEMCO: Opening /shared/ucl/depts/uptrop/uclgcfs/gcgrid/gcdata/ExtData/HEMCO/GMI/v2015-02/gmi.clim.HNO4.geos5.2x25.nc
HEMCO: Opening /shared/ucl/depts/uptrop/uclgcfs/gcgrid/gcdata/ExtData/HEMCO/GMI/v2015-02/gmi.clim.HOCl.geos5.2x25.nc
HEMCO: Opening /shared/ucl/depts/uptrop/uclgcfs/gcgrid/gcdata/ExtData/HEMCO/GMI/v2015-02/gmi.clim.ISOP.geos5.2x25.nc
HEMCO: Opening /shared/ucl/depts/uptrop/uclgcfs/gcgrid/gcdata/ExtData/HEMCO/GMI/v2015-02/gmi.clim.MACR.geos5.2x25.nc
HEMCO: Opening /shared/ucl/depts/uptrop/uclgcfs/gcgrid/gcdata/ExtData/HEMCO/GMI/v2015-02/gmi.clim.MAP.geos5.2x25.nc
HEMCO: Opening /shared/ucl/depts/uptrop/uclgcfs/gcgrid/gcdata/ExtData/HEMCO/GMI/v2015-02/gmi.clim.MEK.geos5.2x25.nc
HEMCO: Opening /shared/ucl/depts/uptrop/uclgcfs/gcgrid/gcdata/ExtData/HEMCO/GMI/v2015-02/gmi.clim.MGLY.geos5.2x25.nc
HEMCO: Opening /shared/ucl/depts/uptrop/uclgcfs/gcgrid/gcdata/ExtData/HEMCO/GMI/v2015-02/gmi.clim.MOH.geos5.2x25.nc
HEMCO: Opening /shared/ucl/depts/uptrop/uclgcfs/gcgrid/gcdata/ExtData/HEMCO/GMI/v2015-02/gmi.clim.MP.geos5.2x25.nc
HEMCO: Opening /shared/ucl/depts/uptrop/uclgcfs/gcgrid/gcdata/ExtData/HEMCO/GMI/v2015-02/gmi.clim.MVK.geos5.2x25.nc
HEMCO: Opening /shared/ucl/depts/uptrop/uclgcfs/gcgrid/gcdata/ExtData/HEMCO/GMI/v2015-02/gmi.clim.N2O.geos5.2x25.nc
HEMCO: Opening /shared/ucl/depts/uptrop/uclgcfs/gcgrid/gcdata/ExtData/HEMCO/GMI/v2015-02/gmi.clim.N2O5.geos5.2x25.nc
HEMCO: Opening /shared/ucl/depts/uptrop/uclgcfs/gcgrid/gcdata/ExtData/HEMCO/GMI/v2015-02/gmi.clim.NO.geos5.2x25.nc
HEMCO: Opening /shared/ucl/depts/uptrop/uclgcfs/gcgrid/gcdata/ExtData/HEMCO/GMI/v2015-02/gmi.clim.NO2.geos5.2x25.nc
HEMCO: Opening /shared/ucl/depts/uptrop/uclgcfs/gcgrid/gcdata/ExtData/HEMCO/GMI/v2015-02/gmi.clim.NO3.geos5.2x25.nc
HEMCO: Opening /shared/ucl/depts/uptrop/uclgcfs/gcgrid/gcdata/ExtData/HEMCO/GMI/v2015-02/gmi.clim.O3.geos5.2x25.nc
HEMCO: Opening /shared/ucl/depts/uptrop/uclgcfs/gcgrid/gcdata/ExtData/HEMCO/GMI/v2015-02/gmi.clim.OClO.geos5.2x25.nc
HEMCO: Opening /shared/ucl/depts/uptrop/uclgcfs/gcgrid/gcdata/ExtData/HEMCO/GMI/v2015-02/gmi.clim.PAN.geos5.2x25.nc
HEMCO: Opening /shared/ucl/depts/uptrop/uclgcfs/gcgrid/gcdata/ExtData/HEMCO/GMI/v2015-02/gmi.clim.PP.geos5.2x25.nc
HEMCO: Opening /shared/ucl/depts/uptrop/uclgcfs/gcgrid/gcdata/ExtData/HEMCO/GMI/v2015-02/gmi.clim.PPN.geos5.2x25.nc
HEMCO: Opening /shared/ucl/depts/uptrop/uclgcfs/gcgrid/gcdata/ExtData/HEMCO/GMI/v2015-02/gmi.clim.PRPE.geos5.2x25.nc
HEMCO: Opening /shared/ucl/depts/uptrop/uclgcfs/gcgrid/gcdata/ExtData/HEMCO/GMI/v2015-02/gmi.clim.PRPN.geos5.2x25.nc
HEMCO: Opening /shared/ucl/depts/uptrop/uclgcfs/gcgrid/gcdata/ExtData/HEMCO/GMI/v2015-02/gmi.clim.R4N2.geos5.2x25.nc
HEMCO: Opening /shared/ucl/depts/uptrop/uclgcfs/gcgrid/gcdata/ExtData/HEMCO/GMI/v2015-02/gmi.clim.R4P.geos5.2x25.nc
HEMCO: Opening /shared/ucl/depts/uptrop/uclgcfs/gcgrid/gcdata/ExtData/HEMCO/GMI/v2015-02/gmi.clim.RA3P.geos5.2x25.nc
HEMCO: Opening /shared/ucl/depts/uptrop/uclgcfs/gcgrid/gcdata/ExtData/HEMCO/GMI/v2015-02/gmi.clim.RB3P.geos5.2x25.nc
HEMCO: Opening /shared/ucl/depts/uptrop/uclgcfs/gcgrid/gcdata/ExtData/HEMCO/GMI/v2015-02/gmi.clim.RCHO.geos5.2x25.nc
HEMCO: Opening /shared/ucl/depts/uptrop/uclgcfs/gcgrid/gcdata/ExtData/HEMCO/GMI/v2015-02/gmi.clim.RIPA.geos5.2x25.nc
HEMCO: Opening /shared/ucl/depts/uptrop/uclgcfs/gcgrid/gcdata/ExtData/HEMCO/GMI/v2015-02/gmi.clim.RIPB.geos5.2x25.nc
HEMCO: Opening /shared/ucl/depts/uptrop/uclgcfs/gcgrid/gcdata/ExtData/HEMCO/GMI/v2015-02/gmi.clim.RIPD.geos5.2x25.nc
HEMCO: Opening /shared/ucl/depts/uptrop/uclgcfs/gcgrid/gcdata/ExtData/HEMCO/GMI/v2015-02/gmi.clim.RP.geos5.2x25.nc
HEMCO: Opening /shared/ucl/depts/uptrop/uclgcfs/gcgrid/gcdata/ExtData/HEMCO/NOAA_GMD/v2018-01/monthly.gridded.surface.methane.1979-2020.1x1.nc
HEMCO: Opening /shared/ucl/depts/uptrop/uclgcfs/gcgrid/gcdata/ExtData/HEMCO/CMIP6/v2020-03/2x2.5/CMIP6_GHG_surface_VMR_2014.2x25.nc
HEMCO: Opening /shared/ucl/depts/uptrop/uclgcfs/gcgrid/gcdata/ExtData/HEMCO/SfcFix/v2019-12/WMO_2018/2x2.5/surface_VMRs_WMO2018_2020.2x25.nc
HEMCO: Opening /shared/ucl/depts/uptrop/uclgcfs/gcgrid/gcdata/ExtData/HEMCO/OCEAN_O3_DRYDEP/v2020-02/Oi_prj_predicted_iodide_0.125x0.125_No_Skagerrak_Just_Ensemble.nc
HEMCO: Opening /shared/ucl/depts/uptrop/uclgcfs/gcgrid/gcdata/ExtData/HEMCO/BROMINE/v2015-02/BromoCarb_Season.nc
HEMCO: Opening /shared/ucl/depts/uptrop/uclgcfs/gcgrid/gcdata/ExtData/HEMCO/OFFLINE_DUST/v2021-08/0.5x0.625/2020/01/dust_emissions_05.20200101.nc
HEMCO: Opening /shared/ucl/depts/uptrop/uclgcfs/gcgrid/gcdata/ExtData/HEMCO/OFFLINE_BIOVOC/v2021-12/0.5x0.625/2020/01/biovoc_05.20200101.nc
HEMCO: Opening /shared/ucl/depts/uptrop/uclgcfs/gcgrid/gcdata/ExtData/HEMCO/OFFLINE_SEASALT/v2019-01/0.5x0.625/2020/01/seasalt_05.20200101.nc
HEMCO: Opening /shared/ucl/depts/uptrop/uclgcfs/gcgrid/gcdata/ExtData/HEMCO/OFFLINE_SOILNOX/V2021-12/0.5x0.625/2020/01/soilnox_05.20200101.nc
HEMCO: Opening /shared/ucl/depts/uptrop/uclgcfs/gcgrid/gcdata/ExtData/GEOS_4x5/MERRA2/2020/01/MERRA2.20200101.A1.4x5.nc4
HEMCO: Opening /shared/ucl/depts/uptrop/uclgcfs/gcgrid/gcdata/ExtData/GEOS_4x5/MERRA2/2020/01/MERRA2.20200101.A3cld.4x5.nc4
HEMCO: Opening /shared/ucl/depts/uptrop/uclgcfs/gcgrid/gcdata/ExtData/GEOS_4x5/MERRA2/2020/01/MERRA2.20200101.A3dyn.4x5.nc4
HEMCO: Opening /shared/ucl/depts/uptrop/uclgcfs/gcgrid/gcdata/ExtData/GEOS_4x5/MERRA2/2020/01/MERRA2.20200101.A3mstC.4x5.nc4
HEMCO: Opening /shared/ucl/depts/uptrop/uclgcfs/gcgrid/gcdata/ExtData/GEOS_4x5/MERRA2/2020/01/MERRA2.20200101.A3mstE.4x5.nc4
HEMCO: Opening /shared/ucl/depts/uptrop/uclgcfs/gcgrid/gcdata/ExtData/GEOS_4x5/MERRA2/2020/01/MERRA2.20200101.I3.4x5.nc4
HEMCO: Opening /shared/ucl/depts/uptrop/uclgcfs/gcgrid/gcdata/ExtData/GEOS_4x5/MERRA2/2020/01/MERRA2.20200102.I3.4x5.nc4
HEMCO: Opening /shared/ucl/depts/uptrop/uclgcfs/gcgrid/gcdata/ExtData/HEMCO/Yuan_XLAI/v2021-06/Yuan_proc_MODIS_XLAI.025x025.2020.nc
HEMCO: Opening /shared/ucl/depts/uptrop/uclgcfs/gcgrid/gcdata/ExtData/HEMCO/OFFLINE_LIGHTNING/v2020-03/MERRA2/2020/FLASH_CTH_MERRA2_0.5x0.625_2020_01.nc4

!!!!!!!!!!!!!!!!!!!!!!!!!!!!!!!!!!!!!!!!!!!!!!!!!!!!!!!!!!!!!!!!!!!!!!!!!!!!!!!
!!! GEOS-CHEM IS IN DRY-RUN MODE!
!!!
!!! You will NOT get output for this run!
!!! Use this command to validate a GEOS-Chem run configuration:
!!!   ./gcclassic --dryrun > log
!!!
!!! REMOVE THE --dryrun ARGUMENT FROM THE COMMAND LINE
!!! BEFORE RUNNING A GEOS-Chem PRODUCTION SIMULATION!
!!!!!!!!!!!!!!!!!!!!!!!!!!!!!!!!!!!!!!!!!!!!!!!!!!!!!!!!!!!!!!!!!!!!!!!!!!!!!!!
!!! Start Date       : 20190801 000000
!!! End Date         : 20200101 000000
!!! Simulation       : fullchem
!!! Meteorology      : MERRA2
!!! Grid Resolution  : 4.0x5.0
!!!!!!!!!!!!!!!!!!!!!!!!!!!!!!!!!!!!!!!!!!!!!!!!!!!!!!!!!!!!!!!!!!!!!!!!!!!!!!!

     - CLEANUP: deallocating arrays now...

%%%%%%%%%%%%%%%%%%%%%%%%%%%%%%%%%%%%%%%%%%%%%%%%%%%%%%%%%%%%%%%%%
%%%%%     To compute the OH metrics, execute the Python     %%%%%
%%%%%       script "metrics.py" in this run directory.      %%%%%
%%%%%%%%%%%%%%%%%%%%%%%%%%%%%%%%%%%%%%%%%%%%%%%%%%%%%%%%%%%%%%%%%

===> SIMULATION END TIME: 2024/02/27 12:48 <===


**************   E N D   O F   G E O S -- C H E M   **************
